
     RDKit          3D

 10  9  0  0  0  0  0  0  0  0999 V2000
   -4.7430    8.9200   -3.6980 O   0  0  0  0  0  0  0  0  0  0  0  0
   -3.7837    8.1327   -2.9481 C   0  0  0  0  0  0  0  0  0  0  0  0
   -5.8490    8.1420   -4.1630 C   0  0  0  0  0  0  0  0  0  0  0  0
   -4.4318    7.4356   -1.8596 C   0  0  0  0  0  0  0  0  0  0  0  0
   -4.9026    6.8623   -1.0010 N   0  0  0  0  0  0  0  0  0  0  0  0
   -3.3165    7.3976   -3.6200 H   0  0  0  0  0  0  0  0  0  0  0  0
   -3.0220    8.8079   -2.5311 H   0  0  0  0  0  0  0  0  0  0  0  0
   -5.6280    7.7549   -5.1687 H   0  0  0  0  0  0  0  0  0  0  0  0
   -6.0201    7.3004   -3.4756 H   0  0  0  0  0  0  0  0  0  0  0  0
   -6.7498    8.7721   -4.2024 H   0  0  0  0  0  0  0  0  0  0  0  0
  1  2  1  0
  1  3  1  0
  2  4  1  0
  4  5  3  0
  2  6  1  0
  2  7  1  0
  3  8  1  0
  3  9  1  0
  3 10  1  0
M  END
$$$$

     RDKit          3D

 28 30  0  0  0  0  0  0  0  0999 V2000
    0.7115   10.3898   -8.2870 N   0  0  0  0  0  0  0  0  0  0  0  0
    0.5200    9.2660   -7.3910 C   0  0  0  0  0  0  0  0  0  0  0  0
    1.6405   11.3371   -8.1367 C   0  0  0  0  0  0  0  0  0  0  0  0
   -0.0161   10.6269   -9.3818 N   0  0  0  0  0  0  0  0  0  0  0  0
    1.4654   12.1765   -9.1813 C   0  0  0  0  0  0  0  0  0  0  0  0
    0.4423   11.7229   -9.9351 N   0  0  0  0  0  0  0  0  0  0  0  0
    0.2430    9.2710   -5.9990 C   0  0  0  0  0  0  0  0  0  0  0  0
    0.5800    8.0950   -8.0410 N   0  0  0  0  0  0  0  0  0  0  0  0
    0.0730    8.0370   -5.3300 C   0  0  0  0  0  0  0  0  0  0  0  0
    0.1340   10.5440   -5.1780 C   0  0  0  0  0  0  0  0  0  0  0  0
    0.4320    6.9230   -7.4130 C   0  0  0  0  0  0  0  0  0  0  0  0
   -0.1967    7.9617   -3.9073 C   0  0  0  0  0  0  0  0  0  0  0  0
    0.1710    6.8500   -6.0490 C   0  0  0  0  0  0  0  0  0  0  0  0
   -0.0162    6.5511   -3.2703 C   0  0  0  0  0  0  0  0  0  0  0  0
    0.9912    8.3744   -2.9814 C   0  0  0  0  0  0  0  0  0  0  0  0
    1.1101    7.0161   -2.4717 O   0  0  0  0  0  0  0  0  0  0  0  0
    2.3885   11.4172   -7.3341 H   0  0  0  0  0  0  0  0  0  0  0  0
    2.0590   13.0803   -9.3836 H   0  0  0  0  0  0  0  0  0  0  0  0
    1.1277   10.8195   -4.7950 H   0  0  0  0  0  0  0  0  0  0  0  0
   -0.2533   11.3563   -5.8106 H   0  0  0  0  0  0  0  0  0  0  0  0
   -0.5513   10.3782   -4.3337 H   0  0  0  0  0  0  0  0  0  0  0  0
    0.5192    5.9915   -7.9915 H   0  0  0  0  0  0  0  0  0  0  0  0
   -1.1586    8.4950   -3.9259 H   0  0  0  0  0  0  0  0  0  0  0  0
    0.0451    5.8774   -5.5507 H   0  0  0  0  0  0  0  0  0  0  0  0
   -0.8781    6.2212   -2.6717 H   0  0  0  0  0  0  0  0  0  0  0  0
    0.1039    5.6719   -3.9203 H   0  0  0  0  0  0  0  0  0  0  0  0
    1.8799    8.7226   -3.5282 H   0  0  0  0  0  0  0  0  0  0  0  0
    0.8687    9.2114   -2.2783 H   0  0  0  0  0  0  0  0  0  0  0  0
  1  2  1  0
  1  3  1  0
  1  4  1  0
  3  5  2  0
  4  6  2  0
  6  5  1  0
  2  7  2  0
  2  8  1  0
  9  7  1  0
  7 10  1  0
  8 11  2  0
 12  9  1  0
 13  9  2  0
 11 13  1  0
 12 14  1  0
 12 15  1  0
 14 16  1  0
 15 16  1  0
  3 17  1  0
  5 18  1  0
 10 19  1  0
 10 20  1  0
 10 21  1  0
 11 22  1  0
 12 23  1  0
 13 24  1  0
 14 25  1  0
 14 26  1  0
 15 27  1  0
 15 28  1  0
M  END
$$$$

     RDKit          3D

 27 29  0  0  0  0  0  0  0  0999 V2000
    0.7200   10.4400   -8.3270 C   0  0  0  0  0  0  0  0  0  0  0  0
    0.5285    9.3162   -7.4310 N   0  0  0  0  0  0  0  0  0  0  0  0
    1.6520   11.8460   -7.9610 S   0  0  0  0  0  3  0  0  0  0  0  0
    2.5100   12.0090   -6.4990 C   0  0  0  0  0  0  0  0  0  0  0  0
    0.6010   12.9330   -7.9940 O   0  0  0  0  0  0  0  0  0  0  0  0
    3.4150   13.0050   -6.3620 N   0  0  0  0  0  0  0  0  0  0  0  0
    2.3160   11.2310   -5.4170 N   0  0  0  0  0  0  0  0  0  0  0  0
    3.8770   12.8740   -5.1010 C   0  0  0  0  0  0  0  0  0  0  0  0
    3.1650   11.7250   -4.4860 C   0  0  0  0  0  0  0  0  0  0  0  0
    4.8200   13.5610   -4.3510 C   0  0  0  0  0  0  0  0  0  0  0  0
    3.4510   11.3720   -3.1790 C   0  0  0  0  0  0  0  0  0  0  0  0
    5.0840   13.1730   -3.0410 C   0  0  0  0  0  0  0  0  0  0  0  0
    4.4040   12.1030   -2.4750 C   0  0  0  0  0  0  0  0  0  0  0  0
    0.7291    8.0367   -7.7565 C   0  0  0  0  0  0  0  0  0  0  0  0
    0.1261    9.4113   -6.1610 N   0  0  0  0  0  0  0  0  0  0  0  0
    0.4362    7.3350   -6.6393 C   0  0  0  0  0  0  0  0  0  0  0  0
    0.0674    8.1978   -5.6697 N   0  0  0  0  0  0  0  0  0  0  0  0
    1.1710   10.0170   -9.2368 H   0  0  0  0  0  0  0  0  0  0  0  0
   -0.2935   10.8675   -8.3306 H   0  0  0  0  0  0  0  0  0  0  0  0
   -0.1536   12.6451   -8.5665 H   0  0  0  0  0  0  0  0  0  0  0  0
    1.6666   10.4374   -5.3198 H   0  0  0  0  0  0  0  0  0  0  0  0
    5.3592   14.4125   -4.7917 H   0  0  0  0  0  0  0  0  0  0  0  0
    2.9330   10.5262   -2.7032 H   0  0  0  0  0  0  0  0  0  0  0  0
    5.8358   13.7172   -2.4505 H   0  0  0  0  0  0  0  0  0  0  0  0
    4.6259   11.8232   -1.4346 H   0  0  0  0  0  0  0  0  0  0  0  0
    1.0617    7.6390   -8.7266 H   0  0  0  0  0  0  0  0  0  0  0  0
    0.4897    6.2410   -6.5373 H   0  0  0  0  0  0  0  0  0  0  0  0
  1  2  1  0
  3  1  1  0
  4  3  1  0
  3  5  1  1
  6  4  2  0
  4  7  1  0
  8  6  1  0
  9  7  1  0
  9  8  2  0
  8 10  1  0
 11  9  1  0
 10 12  2  0
 11 13  2  0
 12 13  1  0
  2 14  1  0
  2 15  1  0
 14 16  2  0
 15 17  2  0
 17 16  1  0
  1 18  1  0
  1 19  1  0
  5 20  1  0
  7 21  1  0
 10 22  1  0
 11 23  1  0
 12 24  1  0
 13 25  1  0
 14 26  1  0
 16 27  1  0
M  CHG  1   3   1
M  END
$$$$

     RDKit          3D

 15 15  0  0  0  0  0  0  0  0999 V2000
   -0.1850    7.9650   -3.9690 O   0  0  0  0  0  0  0  0  0  0  0  0
   -1.4369    7.4367   -3.4630 C   0  0  0  0  0  0  0  0  0  0  0  0
    0.0847    8.0403   -5.3917 C   0  0  0  0  0  0  0  0  0  0  0  0
    1.1316    8.9995   -5.6649 C   0  0  0  0  0  0  0  0  0  0  0  0
    1.9569    9.7346   -5.9219 N   0  0  0  0  0  0  0  0  0  0  0  0
   -1.4460    5.9042   -3.1807 C   0  0  0  0  0  0  0  0  0  0  0  0
   -1.6446    7.5769   -1.9216 C   0  0  0  0  0  0  0  0  0  0  0  0
   -1.6008    6.1321   -1.7500 O   0  0  0  0  0  0  0  0  0  0  0  0
   -2.0930    7.9159   -4.2046 H   0  0  0  0  0  0  0  0  0  0  0  0
    0.3998    7.0499   -5.7521 H   0  0  0  0  0  0  0  0  0  0  0  0
   -0.8319    8.3614   -5.9082 H   0  0  0  0  0  0  0  0  0  0  0  0
   -2.2933    5.3737   -3.6395 H   0  0  0  0  0  0  0  0  0  0  0  0
   -0.6178    5.2788   -3.5455 H   0  0  0  0  0  0  0  0  0  0  0  0
   -0.8290    8.1094   -1.4105 H   0  0  0  0  0  0  0  0  0  0  0  0
   -2.5041    8.1455   -1.5370 H   0  0  0  0  0  0  0  0  0  0  0  0
  1  2  1  0
  1  3  1  0
  3  4  1  0
  4  5  3  0
  2  6  1  0
  2  7  1  0
  6  8  1  0
  7  8  1  0
  2  9  1  0
  3 10  1  0
  3 11  1  0
  6 12  1  0
  6 13  1  0
  7 14  1  0
  7 15  1  0
M  END
$$$$

     RDKit          3D

 24 25  0  0  0  0  0  0  0  0999 V2000
   -0.1850    7.9650   -3.9690 O   0  0  0  0  0  0  0  0  0  0  0  0
    0.0847    8.0403   -5.3917 C   0  0  0  0  0  0  0  0  0  0  0  0
   -1.4369    7.4367   -3.4630 C   0  0  0  0  0  0  0  0  0  0  0  0
   -1.3700    6.8253   -2.0311 C   0  0  0  0  0  0  0  0  0  0  0  0
   -2.3903    8.4895   -2.8137 C   0  0  0  0  0  0  0  0  0  0  0  0
   -2.2359    7.8720   -1.5046 O   0  0  0  0  0  0  0  0  0  0  0  0
    0.3462    9.2586   -5.9827 C   0  0  0  0  0  0  0  0  0  0  0  0
    0.0815    6.8935   -6.1579 C   0  0  0  0  0  0  0  0  0  0  0  0
    0.5996    9.3050   -7.3397 C   0  0  0  0  0  0  0  0  0  0  0  0
    0.3344    6.9913   -7.5123 C   0  0  0  0  0  0  0  0  0  0  0  0
    0.5770    8.1843   -8.0780 N   0  0  0  0  0  4  0  0  0  0  0  0
    0.8712    8.2582   -9.5254 C   0  0  0  0  0  0  0  0  0  0  0  0
   -1.7048    6.8517   -4.3552 H   0  0  0  0  0  0  0  0  0  0  0  0
   -1.8007    5.8157   -1.9595 H   0  0  0  0  0  0  0  0  0  0  0  0
   -0.3917    6.6418   -1.5631 H   0  0  0  0  0  0  0  0  0  0  0  0
   -2.0128    9.5214   -2.8651 H   0  0  0  0  0  0  0  0  0  0  0  0
   -3.3974    8.6418   -3.2290 H   0  0  0  0  0  0  0  0  0  0  0  0
    0.3529   10.1801   -5.3820 H   0  0  0  0  0  0  0  0  0  0  0  0
   -0.1195    5.9151   -5.6971 H   0  0  0  0  0  0  0  0  0  0  0  0
    0.8220   10.2694   -7.8198 H   0  0  0  0  0  0  0  0  0  0  0  0
    0.3370    6.0832   -8.1331 H   0  0  0  0  0  0  0  0  0  0  0  0
    0.5330    9.2280   -9.9193 H   0  0  0  0  0  0  0  0  0  0  0  0
    1.9547    8.1554   -9.6850 H   0  0  0  0  0  0  0  0  0  0  0  0
    0.3449    7.4463  -10.0486 H   0  0  0  0  0  0  0  0  0  0  0  0
  1  2  1  0
  1  3  1  0
  3  4  1  0
  3  5  1  0
  4  6  1  0
  5  6  1  0
  2  7  2  0
  2  8  1  0
  7  9  1  0
 10  8  2  0
  9 11  2  0
 11 10  1  0
 11 12  1  0
  3 13  1  0
  4 14  1  0
  4 15  1  0
  5 16  1  0
  5 17  1  0
  7 18  1  0
  8 19  1  0
  9 20  1  0
 10 21  1  0
 12 22  1  0
 12 23  1  0
 12 24  1  0
M  CHG  1  11   1
M  END
$$$$

     RDKit          3D

 29 30  0  0  0  0  0  0  0  0999 V2000
   -0.1967    7.9617   -3.9073 N   0  0  0  0  0  0  0  0  0  0  0  0
    0.0730    8.0370   -5.3300 C   0  0  0  0  0  0  0  0  0  0  0  0
   -1.5190    7.7632   -3.3424 C   0  0  0  0  0  0  0  0  0  0  0  0
    0.7320    8.0658   -2.9740 C   0  0  0  0  0  0  0  0  0  0  0  0
   -1.2016    7.4183   -1.9033 C   0  0  0  0  0  0  0  0  0  0  0  0
    1.9048    8.3550   -3.1955 O   0  0  0  0  0  0  0  0  0  0  0  0
    0.1776    7.8420   -1.7850 N   0  0  0  0  0  0  0  0  0  0  0  0
    0.2430    9.2710   -5.9990 C   0  0  0  0  0  0  0  0  0  0  0  0
    0.1710    6.8500   -6.0490 C   0  0  0  0  0  0  0  0  0  0  0  0
    0.5200    9.2660   -7.3910 C   0  0  0  0  0  0  0  0  0  0  0  0
    0.1340   10.5440   -5.1780 C   0  0  0  0  0  0  0  0  0  0  0  0
    0.4320    6.9230   -7.4130 C   0  0  0  0  0  0  0  0  0  0  0  0
    0.7115   10.3898   -8.2870 C   0  0  0  0  0  0  0  0  0  0  0  0
    0.5800    8.0950   -8.0410 N   0  0  0  0  0  0  0  0  0  0  0  0
   -0.0789   10.5557   -9.2005 O   0  0  0  0  0  0  0  0  0  0  0  0
    1.8368   11.3043   -8.0480 C   0  0  0  0  0  0  0  0  0  0  0  0
   -2.1233    8.6799   -3.4091 H   0  0  0  0  0  0  0  0  0  0  0  0
   -2.1107    6.9945   -3.8611 H   0  0  0  0  0  0  0  0  0  0  0  0
   -1.8500    7.9717   -1.2080 H   0  0  0  0  0  0  0  0  0  0  0  0
   -1.3606    6.3579   -1.6577 H   0  0  0  0  0  0  0  0  0  0  0  0
    0.6707    7.9565   -0.8880 H   0  0  0  0  0  0  0  0  0  0  0  0
    0.0451    5.8774   -5.5507 H   0  0  0  0  0  0  0  0  0  0  0  0
    1.1277   10.8195   -4.7950 H   0  0  0  0  0  0  0  0  0  0  0  0
   -0.2533   11.3563   -5.8106 H   0  0  0  0  0  0  0  0  0  0  0  0
   -0.5513   10.3782   -4.3337 H   0  0  0  0  0  0  0  0  0  0  0  0
    0.5192    5.9915   -7.9915 H   0  0  0  0  0  0  0  0  0  0  0  0
    2.7561   10.7211   -7.8909 H   0  0  0  0  0  0  0  0  0  0  0  0
    1.9650   11.9634   -8.9193 H   0  0  0  0  0  0  0  0  0  0  0  0
    1.6314   11.9128   -7.1550 H   0  0  0  0  0  0  0  0  0  0  0  0
  1  2  1  0
  1  3  1  0
  1  4  1  0
  3  5  1  0
  4  6  2  0
  4  7  1  0
  7  5  1  0
  2  8  2  0
  9  2  1  0
 10  8  1  0
  8 11  1  0
 12  9  2  0
 13 10  1  0
 10 14  2  0
 14 12  1  0
 13 15  2  0
 13 16  1  0
  3 17  1  0
  3 18  1  0
  5 19  1  0
  5 20  1  0
  7 21  1  0
  9 22  1  0
 11 23  1  0
 11 24  1  0
 11 25  1  0
 12 26  1  0
 16 27  1  0
 16 28  1  0
 16 29  1  0
M  END
$$$$

     RDKit          3D

 15 15  0  0  0  0  0  0  0  0999 V2000
   -0.1850    7.9650   -3.9690 O   0  0  0  0  0  0  0  0  0  0  0  0
    0.0847    8.0403   -5.3917 C   0  0  0  0  0  0  0  0  0  0  0  0
   -1.4369    7.4367   -3.4630 C   0  0  0  0  0  0  0  0  0  0  0  0
   -1.2008    6.5044   -2.3832 C   0  0  0  0  0  0  0  0  0  0  0  0
   -1.0603    5.7755   -1.5250 N   0  0  0  0  0  0  0  0  0  0  0  0
    0.1343    9.4810   -5.9835 C   0  0  0  0  0  0  0  0  0  0  0  0
    1.5941    7.9798   -5.7877 C   0  0  0  0  0  0  0  0  0  0  0  0
    1.5541    9.3485   -6.2819 O   0  0  0  0  0  0  0  0  0  0  0  0
   -0.6507    7.2853   -5.7066 H   0  0  0  0  0  0  0  0  0  0  0  0
   -2.0560    8.2675   -3.0935 H   0  0  0  0  0  0  0  0  0  0  0  0
   -1.9527    6.9088   -4.2786 H   0  0  0  0  0  0  0  0  0  0  0  0
   -0.4955    9.6161   -6.8752 H   0  0  0  0  0  0  0  0  0  0  0  0
   -0.2178   10.3299   -5.3791 H   0  0  0  0  0  0  0  0  0  0  0  0
    2.2717    7.8361   -4.9332 H   0  0  0  0  0  0  0  0  0  0  0  0
    1.9533    7.1737   -6.4442 H   0  0  0  0  0  0  0  0  0  0  0  0
  1  2  1  0
  1  3  1  0
  3  4  1  0
  4  5  3  0
  2  6  1  0
  2  7  1  0
  6  8  1  0
  7  8  1  0
  2  9  1  0
  3 10  1  0
  3 11  1  0
  6 12  1  0
  6 13  1  0
  7 14  1  0
  7 15  1  0
M  END
$$$$

     RDKit          3D

 10  9  0  0  0  0  0  0  0  0999 V2000
   -4.7430    8.9200   -3.6980 O   0  0  0  0  0  0  0  0  0  0  0  0
   -3.7837    8.1327   -2.9481 C   0  0  0  0  0  0  0  0  0  0  0  0
   -5.8490    8.1420   -4.1630 C   0  0  0  0  0  0  0  0  0  0  0  0
   -4.4067    7.5333   -1.7891 C   0  0  0  0  0  0  0  0  0  0  0  0
   -4.8589    7.0353   -0.8753 N   0  0  0  0  0  0  0  0  0  0  0  0
   -3.3852    7.3374   -3.5953 H   0  0  0  0  0  0  0  0  0  0  0  0
   -2.9718    8.7936   -2.6103 H   0  0  0  0  0  0  0  0  0  0  0  0
   -5.5869    7.6677   -5.1203 H   0  0  0  0  0  0  0  0  0  0  0  0
   -6.0879    7.3649   -3.4220 H   0  0  0  0  0  0  0  0  0  0  0  0
   -6.7229    8.7949   -4.3044 H   0  0  0  0  0  0  0  0  0  0  0  0
  1  2  1  0
  1  3  1  0
  2  4  1  0
  4  5  3  0
  2  6  1  0
  2  7  1  0
  3  8  1  0
  3  9  1  0
  3 10  1  0
M  END
$$$$

     RDKit          3D

 27 29  0  0  0  0  0  0  0  0999 V2000
    0.7200   10.4400   -8.3270 C   0  0  0  0  0  0  0  0  0  0  0  0
    0.5285    9.3162   -7.4310 N   0  0  0  0  0  0  0  0  0  0  0  0
    1.6520   11.8460   -7.9610 S   0  0  0  0  0  3  0  0  0  0  0  0
    2.5100   12.0090   -6.4990 C   0  0  0  0  0  0  0  0  0  0  0  0
    0.6010   12.9330   -7.9940 O   0  0  0  0  0  0  0  0  0  0  0  0
    3.4150   13.0050   -6.3620 N   0  0  0  0  0  0  0  0  0  0  0  0
    2.3160   11.2310   -5.4170 N   0  0  0  0  0  0  0  0  0  0  0  0
    3.8770   12.8740   -5.1010 C   0  0  0  0  0  0  0  0  0  0  0  0
    3.1650   11.7250   -4.4860 C   0  0  0  0  0  0  0  0  0  0  0  0
    4.8200   13.5610   -4.3510 C   0  0  0  0  0  0  0  0  0  0  0  0
    3.4510   11.3720   -3.1790 C   0  0  0  0  0  0  0  0  0  0  0  0
    5.0840   13.1730   -3.0410 C   0  0  0  0  0  0  0  0  0  0  0  0
    4.4040   12.1030   -2.4750 C   0  0  0  0  0  0  0  0  0  0  0  0
    0.8798    8.0562   -7.6999 C   0  0  0  0  0  0  0  0  0  0  0  0
   -0.0246    9.3918   -6.2176 N   0  0  0  0  0  0  0  0  0  0  0  0
    0.5244    7.3464   -6.6062 C   0  0  0  0  0  0  0  0  0  0  0  0
   -0.0299    8.1852   -5.7063 N   0  0  0  0  0  0  0  0  0  0  0  0
    1.1710   10.0170   -9.2368 H   0  0  0  0  0  0  0  0  0  0  0  0
   -0.2935   10.8675   -8.3306 H   0  0  0  0  0  0  0  0  0  0  0  0
   -0.1788   12.6222   -8.5188 H   0  0  0  0  0  0  0  0  0  0  0  0
    1.6666   10.4374   -5.3198 H   0  0  0  0  0  0  0  0  0  0  0  0
    5.3592   14.4125   -4.7917 H   0  0  0  0  0  0  0  0  0  0  0  0
    2.9330   10.5262   -2.7032 H   0  0  0  0  0  0  0  0  0  0  0  0
    5.8358   13.7172   -2.4505 H   0  0  0  0  0  0  0  0  0  0  0  0
    4.6259   11.8232   -1.4346 H   0  0  0  0  0  0  0  0  0  0  0  0
    1.3564    7.6771   -8.6159 H   0  0  0  0  0  0  0  0  0  0  0  0
    0.6641    6.2636   -6.4718 H   0  0  0  0  0  0  0  0  0  0  0  0
  1  2  1  0
  3  1  1  0
  4  3  1  0
  3  5  1  1
  6  4  2  0
  4  7  1  0
  8  6  1  0
  9  7  1  0
  9  8  2  0
  8 10  1  0
 11  9  1  0
 10 12  2  0
 11 13  2  0
 12 13  1  0
  2 14  1  0
  2 15  1  0
 14 16  2  0
 15 17  2  0
 17 16  1  0
  1 18  1  0
  1 19  1  0
  5 20  1  0
  7 21  1  0
 10 22  1  0
 11 23  1  0
 12 24  1  0
 13 25  1  0
 14 26  1  0
 16 27  1  0
M  CHG  1   3   1
M  END
$$$$

     RDKit          3D

 28 30  0  0  0  0  0  0  0  0999 V2000
    0.7115   10.3898   -8.2870 N   0  0  0  0  0  0  0  0  0  0  0  0
    0.5200    9.2660   -7.3910 C   0  0  0  0  0  0  0  0  0  0  0  0
    1.6405   11.3371   -8.1367 C   0  0  0  0  0  0  0  0  0  0  0  0
   -0.0161   10.6269   -9.3818 N   0  0  0  0  0  0  0  0  0  0  0  0
    1.4654   12.1765   -9.1813 C   0  0  0  0  0  0  0  0  0  0  0  0
    0.4423   11.7229   -9.9351 N   0  0  0  0  0  0  0  0  0  0  0  0
    0.2430    9.2710   -5.9990 C   0  0  0  0  0  0  0  0  0  0  0  0
    0.5800    8.0950   -8.0410 N   0  0  0  0  0  0  0  0  0  0  0  0
    0.0730    8.0370   -5.3300 C   0  0  0  0  0  0  0  0  0  0  0  0
    0.1340   10.5440   -5.1780 C   0  0  0  0  0  0  0  0  0  0  0  0
    0.4320    6.9230   -7.4130 C   0  0  0  0  0  0  0  0  0  0  0  0
   -0.1967    7.9617   -3.9073 C   0  0  0  0  0  0  0  0  0  0  0  0
    0.1710    6.8500   -6.0490 C   0  0  0  0  0  0  0  0  0  0  0  0
   -0.1751    6.5261   -3.3017 C   0  0  0  0  0  0  0  0  0  0  0  0
    1.0349    8.2160   -2.9815 C   0  0  0  0  0  0  0  0  0  0  0  0
    1.0007    6.8422   -2.5016 O   0  0  0  0  0  0  0  0  0  0  0  0
    2.3885   11.4172   -7.3341 H   0  0  0  0  0  0  0  0  0  0  0  0
    2.0590   13.0803   -9.3836 H   0  0  0  0  0  0  0  0  0  0  0  0
    1.1277   10.8195   -4.7950 H   0  0  0  0  0  0  0  0  0  0  0  0
   -0.2533   11.3563   -5.8106 H   0  0  0  0  0  0  0  0  0  0  0  0
   -0.5513   10.3782   -4.3337 H   0  0  0  0  0  0  0  0  0  0  0  0
    0.5192    5.9915   -7.9915 H   0  0  0  0  0  0  0  0  0  0  0  0
   -1.0916    8.6014   -3.9075 H   0  0  0  0  0  0  0  0  0  0  0  0
    0.0451    5.8774   -5.5507 H   0  0  0  0  0  0  0  0  0  0  0  0
   -1.0661    6.2834   -2.7040 H   0  0  0  0  0  0  0  0  0  0  0  0
   -0.1591    5.6534   -3.9712 H   0  0  0  0  0  0  0  0  0  0  0  0
    1.9549    8.4728   -3.5272 H   0  0  0  0  0  0  0  0  0  0  0  0
    1.0120    9.0460   -2.2599 H   0  0  0  0  0  0  0  0  0  0  0  0
  1  2  1  0
  1  3  1  0
  1  4  1  0
  3  5  2  0
  4  6  2  0
  6  5  1  0
  2  7  2  0
  2  8  1  0
  9  7  1  0
  7 10  1  0
  8 11  2  0
 12  9  1  0
 13  9  2  0
 11 13  1  0
 12 14  1  0
 12 15  1  0
 14 16  1  0
 15 16  1  0
  3 17  1  0
  5 18  1  0
 10 19  1  0
 10 20  1  0
 10 21  1  0
 11 22  1  0
 12 23  1  0
 13 24  1  0
 14 25  1  0
 14 26  1  0
 15 27  1  0
 15 28  1  0
M  END
$$$$

     RDKit          3D

 10  9  0  0  0  0  0  0  0  0999 V2000
   -4.7430    8.9200   -3.6980 O   0  0  0  0  0  0  0  0  0  0  0  0
   -3.7837    8.1327   -2.9481 C   0  0  0  0  0  0  0  0  0  0  0  0
   -5.8490    8.1420   -4.1630 C   0  0  0  0  0  0  0  0  0  0  0  0
   -4.4224    7.4757   -1.8295 C   0  0  0  0  0  0  0  0  0  0  0  0
   -4.8862    6.9333   -0.9474 N   0  0  0  0  0  0  0  0  0  0  0  0
   -3.3447    7.3721   -3.6106 H   0  0  0  0  0  0  0  0  0  0  0  0
   -3.0007    8.8029   -2.5637 H   0  0  0  0  0  0  0  0  0  0  0  0
   -5.4753    7.2500   -4.6870 H   0  0  0  0  0  0  0  0  0  0  0  0
   -6.4656    7.8325   -3.3062 H   0  0  0  0  0  0  0  0  0  0  0  0
   -6.4570    8.7450   -4.8534 H   0  0  0  0  0  0  0  0  0  0  0  0
  1  2  1  0
  1  3  1  0
  2  4  1  0
  4  5  3  0
  2  6  1  0
  2  7  1  0
  3  8  1  0
  3  9  1  0
  3 10  1  0
M  END
$$$$

     RDKit          3D

 15 15  0  0  0  0  0  0  0  0999 V2000
   -0.1850    7.9650   -3.9690 O   0  0  0  0  0  0  0  0  0  0  0  0
    0.0847    8.0403   -5.3917 C   0  0  0  0  0  0  0  0  0  0  0  0
   -1.4369    7.4367   -3.4630 C   0  0  0  0  0  0  0  0  0  0  0  0
   -1.2030    6.5341   -2.3578 C   0  0  0  0  0  0  0  0  0  0  0  0
   -1.0645    5.8283   -1.4802 N   0  0  0  0  0  0  0  0  0  0  0  0
    0.2314    6.6332   -6.3684 S   0  0  0  0  0  0  0  0  0  0  0  0
    0.2302    9.1738   -6.0059 N   0  0  0  0  0  0  0  0  0  0  0  0
    0.5097    7.6613   -7.7027 C   0  0  0  0  0  0  0  0  0  0  0  0
    0.4761    8.9650   -7.3413 C   0  0  0  0  0  0  0  0  0  0  0  0
    0.7397    7.1299   -8.9994 N   0  0  0  0  0  4  0  0  0  0  0  0
   -0.1008    7.3047   -9.8701 O   0  0  0  0  0  0  0  0  0  0  0  0
    1.8242    6.4907   -9.1883 O   0  0  0  0  0  1  0  0  0  0  0  0
   -2.0682    8.2700   -3.1209 H   0  0  0  0  0  0  0  0  0  0  0  0
   -1.9386    6.8833   -4.2705 H   0  0  0  0  0  0  0  0  0  0  0  0
    0.6323    9.7870   -8.0554 H   0  0  0  0  0  0  0  0  0  0  0  0
  1  2  1  0
  1  3  1  0
  3  4  1  0
  4  5  3  0
  2  6  1  0
  2  7  2  0
  6  8  1  0
  7  9  1  0
  8  9  2  0
  8 10  1  0
 10 11  2  0
 10 12  1  0
  3 13  1  0
  3 14  1  0
  9 15  1  0
M  CHG  2  10   1  12  -1
M  END
$$$$

     RDKit          3D

 10  9  0  0  0  0  0  0  0  0999 V2000
   -4.7430    8.9200   -3.6980 O   0  0  0  0  0  0  0  0  0  0  0  0
   -3.7837    8.1327   -2.9481 C   0  0  0  0  0  0  0  0  0  0  0  0
   -5.8490    8.1420   -4.1630 C   0  0  0  0  0  0  0  0  0  0  0  0
   -4.3742    7.6324   -1.7267 C   0  0  0  0  0  0  0  0  0  0  0  0
   -4.8019    7.2106   -0.7641 N   0  0  0  0  0  0  0  0  0  0  0  0
   -3.4543    7.2829   -3.5641 H   0  0  0  0  0  0  0  0  0  0  0  0
   -2.9270    8.7725   -2.6898 H   0  0  0  0  0  0  0  0  0  0  0  0
   -5.7133    7.9130   -5.2303 H   0  0  0  0  0  0  0  0  0  0  0  0
   -5.9038    7.2041   -3.5909 H   0  0  0  0  0  0  0  0  0  0  0  0
   -6.7807    8.7104   -4.0255 H   0  0  0  0  0  0  0  0  0  0  0  0
  1  2  1  0
  1  3  1  0
  2  4  1  0
  4  5  3  0
  2  6  1  0
  2  7  1  0
  3  8  1  0
  3  9  1  0
  3 10  1  0
M  END
$$$$

     RDKit          3D

 15 15  0  0  0  0  0  0  0  0999 V2000
   -0.1850    7.9650   -3.9690 O   0  0  0  0  0  0  0  0  0  0  0  0
   -1.4369    7.4367   -3.4630 C   0  0  0  0  0  0  0  0  0  0  0  0
    0.0847    8.0403   -5.3917 C   0  0  0  0  0  0  0  0  0  0  0  0
    1.0791    9.0518   -5.6721 C   0  0  0  0  0  0  0  0  0  0  0  0
    1.8644    9.8278   -5.9346 N   0  0  0  0  0  0  0  0  0  0  0  0
   -1.3122    6.5132   -2.2140 C   0  0  0  0  0  0  0  0  0  0  0  0
   -2.2219    8.3870   -2.5041 C   0  0  0  0  0  0  0  0  0  0  0  0
   -2.0213    7.4785   -1.3845 O   0  0  0  0  0  0  0  0  0  0  0  0
   -1.8360    7.0924   -4.4285 H   0  0  0  0  0  0  0  0  0  0  0  0
    0.4539    7.0647   -5.7410 H   0  0  0  0  0  0  0  0  0  0  0  0
   -0.8462    8.3062   -5.9139 H   0  0  0  0  0  0  0  0  0  0  0  0
   -1.8348    5.5511   -2.3199 H   0  0  0  0  0  0  0  0  0  0  0  0
   -0.3215    6.1514   -1.9016 H   0  0  0  0  0  0  0  0  0  0  0  0
   -1.7481    9.3704   -2.3681 H   0  0  0  0  0  0  0  0  0  0  0  0
   -3.2398    8.7089   -2.7690 H   0  0  0  0  0  0  0  0  0  0  0  0
  1  2  1  0
  1  3  1  0
  3  4  1  0
  4  5  3  0
  2  6  1  0
  2  7  1  0
  6  8  1  0
  7  8  1  0
  2  9  1  0
  3 10  1  0
  3 11  1  0
  6 12  1  0
  6 13  1  0
  7 14  1  0
  7 15  1  0
M  END
$$$$

     RDKit          3D

 27 28  0  0  0  0  0  0  0  0999 V2000
   -0.1967    7.9617   -3.9073 C   0  0  0  0  0  0  0  0  0  0  0  0
    0.0730    8.0370   -5.3300 C   0  0  0  0  0  0  0  0  0  0  0  0
    0.2996    6.6624   -3.2045 C   0  0  0  0  0  0  0  0  0  0  0  0
    0.8439    8.6828   -2.9930 C   0  0  0  0  0  0  0  0  0  0  0  0
    1.2703    7.4142   -2.4202 O   0  0  0  0  0  0  0  0  0  0  0  0
    0.2430    9.2710   -5.9990 C   0  0  0  0  0  0  0  0  0  0  0  0
    0.1710    6.8500   -6.0490 C   0  0  0  0  0  0  0  0  0  0  0  0
    0.5200    9.2660   -7.3910 C   0  0  0  0  0  0  0  0  0  0  0  0
    0.1340   10.5440   -5.1780 C   0  0  0  0  0  0  0  0  0  0  0  0
    0.4320    6.9230   -7.4130 C   0  0  0  0  0  0  0  0  0  0  0  0
    0.7115   10.3898   -8.2870 C   0  0  0  0  0  0  0  0  0  0  0  0
    0.5800    8.0950   -8.0410 N   0  0  0  0  0  0  0  0  0  0  0  0
   -0.1036   10.5815   -9.1733 O   0  0  0  0  0  0  0  0  0  0  0  0
    1.8673   11.2735   -8.0801 C   0  0  0  0  0  0  0  0  0  0  0  0
   -1.2566    8.2516   -3.9573 H   0  0  0  0  0  0  0  0  0  0  0  0
   -0.4709    6.1646   -2.5975 H   0  0  0  0  0  0  0  0  0  0  0  0
    0.6349    5.8092   -3.8124 H   0  0  0  0  0  0  0  0  0  0  0  0
    1.6352    9.2070   -3.5489 H   0  0  0  0  0  0  0  0  0  0  0  0
    0.5152    9.4968   -2.3302 H   0  0  0  0  0  0  0  0  0  0  0  0
    0.0451    5.8774   -5.5507 H   0  0  0  0  0  0  0  0  0  0  0  0
    1.1277   10.8195   -4.7950 H   0  0  0  0  0  0  0  0  0  0  0  0
   -0.2533   11.3563   -5.8106 H   0  0  0  0  0  0  0  0  0  0  0  0
   -0.5513   10.3782   -4.3337 H   0  0  0  0  0  0  0  0  0  0  0  0
    0.5192    5.9915   -7.9915 H   0  0  0  0  0  0  0  0  0  0  0  0
    2.7668   10.6653   -7.9034 H   0  0  0  0  0  0  0  0  0  0  0  0
    2.0164   11.8975   -8.9737 H   0  0  0  0  0  0  0  0  0  0  0  0
    1.6841   11.9190   -7.2085 H   0  0  0  0  0  0  0  0  0  0  0  0
  1  2  1  0
  1  3  1  0
  1  4  1  0
  3  5  1  0
  4  5  1  0
  2  6  2  0
  7  2  1  0
  8  6  1  0
  6  9  1  0
 10  7  2  0
 11  8  1  0
  8 12  2  0
 12 10  1  0
 11 13  2  0
 11 14  1  0
  1 15  1  0
  3 16  1  0
  3 17  1  0
  4 18  1  0
  4 19  1  0
  7 20  1  0
  9 21  1  0
  9 22  1  0
  9 23  1  0
 10 24  1  0
 14 25  1  0
 14 26  1  0
 14 27  1  0
M  END
$$$$

     RDKit          3D

 29 31  0  0  0  0  0  0  0  0999 V2000
    0.7200   10.4400   -8.3270 C   0  0  0  0  0  0  0  0  0  0  0  0
    0.5285    9.3162   -7.4310 C   0  0  0  0  0  0  0  0  0  0  0  0
    1.6520   11.8460   -7.9610 S   0  0  0  0  0  3  0  0  0  0  0  0
    2.5100   12.0090   -6.4990 C   0  0  0  0  0  0  0  0  0  0  0  0
    0.6010   12.9330   -7.9940 O   0  0  0  0  0  0  0  0  0  0  0  0
    3.4150   13.0050   -6.3620 N   0  0  0  0  0  0  0  0  0  0  0  0
    2.3160   11.2310   -5.4170 N   0  0  0  0  0  0  0  0  0  0  0  0
    3.8770   12.8740   -5.1010 C   0  0  0  0  0  0  0  0  0  0  0  0
    3.1650   11.7250   -4.4860 C   0  0  0  0  0  0  0  0  0  0  0  0
    4.8200   13.5610   -4.3510 C   0  0  0  0  0  0  0  0  0  0  0  0
    3.4510   11.3720   -3.1790 C   0  0  0  0  0  0  0  0  0  0  0  0
    5.0840   13.1730   -3.0410 C   0  0  0  0  0  0  0  0  0  0  0  0
    4.4040   12.1030   -2.4750 C   0  0  0  0  0  0  0  0  0  0  0  0
   -0.5044    8.2524   -7.9103 C   0  0  0  0  0  0  0  0  0  0  0  0
    1.5703    8.1621   -7.5780 C   0  0  0  0  0  0  0  0  0  0  0  0
    0.5419    7.2490   -8.0553 O   0  0  0  0  0  0  0  0  0  0  0  0
    1.1710   10.0170   -9.2368 H   0  0  0  0  0  0  0  0  0  0  0  0
   -0.2935   10.8675   -8.3306 H   0  0  0  0  0  0  0  0  0  0  0  0
    0.4052    9.9015   -6.5079 H   0  0  0  0  0  0  0  0  0  0  0  0
   -0.2963   12.5221   -8.0719 H   0  0  0  0  0  0  0  0  0  0  0  0
    1.6666   10.4374   -5.3198 H   0  0  0  0  0  0  0  0  0  0  0  0
    5.3592   14.4125   -4.7917 H   0  0  0  0  0  0  0  0  0  0  0  0
    2.9330   10.5262   -2.7032 H   0  0  0  0  0  0  0  0  0  0  0  0
    5.8358   13.7172   -2.4505 H   0  0  0  0  0  0  0  0  0  0  0  0
    4.6259   11.8232   -1.4346 H   0  0  0  0  0  0  0  0  0  0  0  0
   -1.2617    7.9974   -7.1543 H   0  0  0  0  0  0  0  0  0  0  0  0
   -1.1631    8.4786   -8.7618 H   0  0  0  0  0  0  0  0  0  0  0  0
    2.3590    8.3675   -8.3167 H   0  0  0  0  0  0  0  0  0  0  0  0
    2.1942    7.8783   -6.7176 H   0  0  0  0  0  0  0  0  0  0  0  0
  1  2  1  0
  3  1  1  0
  4  3  1  0
  3  5  1  1
  6  4  2  0
  4  7  1  0
  8  6  1  0
  9  7  1  0
  9  8  2  0
  8 10  1  0
 11  9  1  0
 10 12  2  0
 11 13  2  0
 12 13  1  0
  2 14  1  0
  2 15  1  0
 14 16  1  0
 15 16  1  0
  1 17  1  0
  1 18  1  0
  2 19  1  0
  5 20  1  0
  7 21  1  0
 10 22  1  0
 11 23  1  0
 12 24  1  0
 13 25  1  0
 14 26  1  0
 14 27  1  0
 15 28  1  0
 15 29  1  0
M  CHG  1   3   1
M  END
$$$$

     RDKit          3D

 21 22  0  0  0  0  0  0  0  0999 V2000
    0.7115   10.3898   -8.2870 N   0  0  0  0  0  0  0  0  0  0  0  0
    0.5200    9.2660   -7.3910 C   0  0  0  0  0  0  0  0  0  0  0  0
   -0.2268   10.8335   -9.2574 O   0  0  0  0  0  0  0  0  0  0  0  0
    1.8260   11.1881   -8.3283 C   0  0  0  0  0  0  0  0  0  0  0  0
    0.2798   11.9897   -9.7938 C   0  0  0  0  0  0  0  0  0  0  0  0
    2.8624   11.0409   -7.6863 O   0  0  0  0  0  0  0  0  0  0  0  0
    1.5167   12.1878   -9.2508 N   0  0  0  0  0  0  0  0  0  0  0  0
   -0.3142   12.6713  -10.6030 O   0  0  0  0  0  0  0  0  0  0  0  0
    0.5800    8.0950   -8.0410 N   0  0  0  0  0  0  0  0  0  0  0  0
    0.2430    9.2710   -5.9990 C   0  0  0  0  0  0  0  0  0  0  0  0
    0.4320    6.9230   -7.4130 C   0  0  0  0  0  0  0  0  0  0  0  0
    0.0730    8.0370   -5.3300 C   0  0  0  0  0  0  0  0  0  0  0  0
    0.1340   10.5440   -5.1780 C   0  0  0  0  0  0  0  0  0  0  0  0
    0.1710    6.8500   -6.0490 C   0  0  0  0  0  0  0  0  0  0  0  0
    2.1396   12.9723   -9.4907 H   0  0  0  0  0  0  0  0  0  0  0  0
    0.5192    5.9915   -7.9915 H   0  0  0  0  0  0  0  0  0  0  0  0
   -0.1350    8.0157   -4.2501 H   0  0  0  0  0  0  0  0  0  0  0  0
    1.1277   10.8195   -4.7950 H   0  0  0  0  0  0  0  0  0  0  0  0
   -0.2533   11.3563   -5.8106 H   0  0  0  0  0  0  0  0  0  0  0  0
   -0.5513   10.3782   -4.3337 H   0  0  0  0  0  0  0  0  0  0  0  0
    0.0451    5.8774   -5.5507 H   0  0  0  0  0  0  0  0  0  0  0  0
  1  2  1  0
  3  1  1  0
  1  4  1  0
  5  3  1  0
  4  6  2  0
  7  4  1  0
  5  8  2  0
  7  5  1  0
  2  9  2  0
  2 10  1  0
  9 11  1  0
 12 10  2  0
 10 13  1  0
 11 14  2  0
 14 12  1  0
  7 15  1  0
 11 16  1  0
 12 17  1  0
 13 18  1  0
 13 19  1  0
 13 20  1  0
 14 21  1  0
M  END
$$$$

     RDKit          3D

 15 15  0  0  0  0  0  0  0  0999 V2000
   -0.1850    7.9650   -3.9690 O   0  0  0  0  0  0  0  0  0  0  0  0
   -1.4369    7.4367   -3.4630 C   0  0  0  0  0  0  0  0  0  0  0  0
    0.0847    8.0403   -5.3917 C   0  0  0  0  0  0  0  0  0  0  0  0
    1.1615    8.9670   -5.6610 C   0  0  0  0  0  0  0  0  0  0  0  0
    2.0096    9.6768   -5.9150 N   0  0  0  0  0  0  0  0  0  0  0  0
   -1.4656    5.8948   -3.2391 C   0  0  0  0  0  0  0  0  0  0  0  0
   -1.6179    7.5209   -1.9141 C   0  0  0  0  0  0  0  0  0  0  0  0
   -1.5942    6.0700   -1.7985 O   0  0  0  0  0  0  0  0  0  0  0  0
   -2.0970    7.9538   -4.1750 H   0  0  0  0  0  0  0  0  0  0  0  0
    0.3672    7.0425   -5.7587 H   0  0  0  0  0  0  0  0  0  0  0  0
   -0.8219    8.3939   -5.9046 H   0  0  0  0  0  0  0  0  0  0  0  0
   -2.3284    5.3952   -3.7039 H   0  0  0  0  0  0  0  0  0  0  0  0
   -0.6533    5.2715   -3.6410 H   0  0  0  0  0  0  0  0  0  0  0  0
   -0.7860    8.0210   -1.3966 H   0  0  0  0  0  0  0  0  0  0  0  0
   -2.4622    8.0872   -1.4942 H   0  0  0  0  0  0  0  0  0  0  0  0
  1  2  1  0
  1  3  1  0
  3  4  1  0
  4  5  3  0
  2  6  1  0
  2  7  1  0
  6  8  1  0
  7  8  1  0
  2  9  1  0
  3 10  1  0
  3 11  1  0
  6 12  1  0
  6 13  1  0
  7 14  1  0
  7 15  1  0
M  END
$$$$

     RDKit          3D

 36 37  0  0  0  0  0  0  0  0999 V2000
   -4.7543    8.9293   -3.7069 N   0  0  0  0  0  4  0  0  0  0  0  0
   -6.0739    8.3751   -3.4744 C   0  0  0  0  0  0  0  0  0  0  0  0
   -3.7950    8.1420   -2.9570 C   0  0  0  0  0  0  0  0  0  0  0  0
   -4.7028   10.3385   -3.2990 C   0  0  0  0  0  0  0  0  0  0  0  0
   -2.4260    8.5890   -3.4360 C   0  0  0  0  0  0  0  0  0  0  0  0
   -1.4220    7.4430   -3.4690 C   0  0  0  0  0  0  0  0  0  0  0  0
   -0.1701    7.9713   -3.9750 N   0  0  0  0  0  0  0  0  0  0  0  0
    0.5852    8.8182   -3.3164 C   0  0  0  0  0  0  0  0  0  0  0  0
    0.3922    7.6227   -5.2718 C   0  0  0  0  0  0  0  0  0  0  0  0
    0.3476    9.3612   -2.1269 N   0  0  0  0  0  0  0  0  0  0  0  0
    1.6728    9.0935   -4.0031 N   0  0  0  0  0  0  0  0  0  0  0  0
    1.6657    8.4638   -5.3219 C   0  0  0  0  0  0  0  0  0  0  0  0
   -7.1251    9.3764   -2.9081 C   0  0  0  0  0  0  0  0  0  0  0  0
   -7.0060    8.3266   -4.7265 C   0  0  0  0  0  0  0  0  0  0  0  0
   -7.9121    9.2983   -4.1316 O   0  0  0  0  0  0  0  0  0  0  0  0
   -4.5300    8.8927   -4.7115 H   0  0  0  0  0  0  0  0  0  0  0  0
   -5.7468    7.4755   -2.9325 H   0  0  0  0  0  0  0  0  0  0  0  0
   -3.9039    8.3313   -1.8789 H   0  0  0  0  0  0  0  0  0  0  0  0
   -3.9460    7.0638   -3.1143 H   0  0  0  0  0  0  0  0  0  0  0  0
   -4.9379   10.4188   -2.2274 H   0  0  0  0  0  0  0  0  0  0  0  0
   -3.6944   10.7371   -3.4841 H   0  0  0  0  0  0  0  0  0  0  0  0
   -5.4374   10.9154   -3.8799 H   0  0  0  0  0  0  0  0  0  0  0  0
   -2.5239    9.0028   -4.4505 H   0  0  0  0  0  0  0  0  0  0  0  0
   -2.0519    9.3437   -2.7286 H   0  0  0  0  0  0  0  0  0  0  0  0
   -1.2773    7.0418   -2.4550 H   0  0  0  0  0  0  0  0  0  0  0  0
   -1.7861    6.6289   -4.1129 H   0  0  0  0  0  0  0  0  0  0  0  0
    0.6235    6.5488   -5.3282 H   0  0  0  0  0  0  0  0  0  0  0  0
   -0.2923    7.8161   -6.1109 H   0  0  0  0  0  0  0  0  0  0  0  0
    1.0264   10.0177   -1.7155 H   0  0  0  0  0  0  0  0  0  0  0  0
    2.4401    9.6841   -3.6522 H   0  0  0  0  0  0  0  0  0  0  0  0
    2.5549    7.8328   -5.4671 H   0  0  0  0  0  0  0  0  0  0  0  0
    1.6873    9.1827   -6.1542 H   0  0  0  0  0  0  0  0  0  0  0  0
   -7.6535    9.0077   -2.0166 H   0  0  0  0  0  0  0  0  0  0  0  0
   -6.7960   10.3573   -2.5345 H   0  0  0  0  0  0  0  0  0  0  0  0
   -6.5250    8.6766   -5.6517 H   0  0  0  0  0  0  0  0  0  0  0  0
   -7.3973    7.3602   -5.0773 H   0  0  0  0  0  0  0  0  0  0  0  0
  1  2  1  0
  3  1  1  0
  1  4  1  0
  5  3  1  0
  6  5  1  0
  6  7  1  0
  7  8  1  0
  7  9  1  0
  8 10  2  3
  8 11  1  0
  9 12  1  0
 12 11  1  0
  2 13  1  0
  2 14  1  0
 13 15  1  0
 14 15  1  0
  1 16  1  0
  2 17  1  0
  3 18  1  0
  3 19  1  0
  4 20  1  0
  4 21  1  0
  4 22  1  0
  5 23  1  0
  5 24  1  0
  6 25  1  0
  6 26  1  0
  9 27  1  0
  9 28  1  0
 10 29  1  0
 11 30  1  0
 12 31  1  0
 12 32  1  0
 13 33  1  0
 13 34  1  0
 14 35  1  0
 14 36  1  0
M  CHG  1   1   1
M  END
$$$$

     RDKit          3D

 32 34  0  0  0  0  0  0  0  0999 V2000
   -0.1967    7.9617   -3.9073 C   0  0  0  0  0  0  0  0  0  0  0  0
    0.0730    8.0370   -5.3300 C   0  0  0  0  0  0  0  0  0  0  0  0
   -0.1074    6.5344   -3.2884 C   0  0  0  0  0  0  0  0  0  0  0  0
    1.0186    8.2838   -2.9810 C   0  0  0  0  0  0  0  0  0  0  0  0
    1.0495    6.9143   -2.4885 O   0  0  0  0  0  0  0  0  0  0  0  0
    0.2430    9.2710   -5.9990 C   0  0  0  0  0  0  0  0  0  0  0  0
    0.1710    6.8500   -6.0490 C   0  0  0  0  0  0  0  0  0  0  0  0
    0.5200    9.2660   -7.3910 C   0  0  0  0  0  0  0  0  0  0  0  0
    0.1340   10.5440   -5.1780 C   0  0  0  0  0  0  0  0  0  0  0  0
    0.4320    6.9230   -7.4130 C   0  0  0  0  0  0  0  0  0  0  0  0
    0.7115   10.3898   -8.2870 N   0  0  0  0  0  0  0  0  0  0  0  0
    0.5800    8.0950   -8.0410 N   0  0  0  0  0  0  0  0  0  0  0  0
   -0.0492   10.5929   -9.5066 C   0  0  0  0  0  0  0  0  0  0  0  0
    1.5983   11.3484   -8.0890 C   0  0  0  0  0  0  0  0  0  0  0  0
    0.2840   12.0278   -9.8541 C   0  0  0  0  0  0  0  0  0  0  0  0
    2.4387   11.3378   -7.1936 O   0  0  0  0  0  0  0  0  0  0  0  0
    1.4440   12.2809   -9.0259 N   0  0  0  0  0  0  0  0  0  0  0  0
   -1.1215    8.5573   -3.9155 H   0  0  0  0  0  0  0  0  0  0  0  0
   -0.9873    6.2543   -2.6906 H   0  0  0  0  0  0  0  0  0  0  0  0
   -0.0473    5.6574   -3.9498 H   0  0  0  0  0  0  0  0  0  0  0  0
    1.9266    8.5797   -3.5269 H   0  0  0  0  0  0  0  0  0  0  0  0
    0.9536    9.1181   -2.2671 H   0  0  0  0  0  0  0  0  0  0  0  0
    0.0451    5.8774   -5.5507 H   0  0  0  0  0  0  0  0  0  0  0  0
   -0.9123   10.8832   -5.1645 H   0  0  0  0  0  0  0  0  0  0  0  0
    0.4687   10.3464   -4.1489 H   0  0  0  0  0  0  0  0  0  0  0  0
    0.7667   11.3245   -5.6259 H   0  0  0  0  0  0  0  0  0  0  0  0
    0.5192    5.9915   -7.9915 H   0  0  0  0  0  0  0  0  0  0  0  0
    0.2770    9.9041  -10.2997 H   0  0  0  0  0  0  0  0  0  0  0  0
   -1.1269   10.4045   -9.3921 H   0  0  0  0  0  0  0  0  0  0  0  0
    0.5255   12.1339  -10.9220 H   0  0  0  0  0  0  0  0  0  0  0  0
   -0.5453   12.7288   -9.6789 H   0  0  0  0  0  0  0  0  0  0  0  0
    2.0745   13.0863   -9.1472 H   0  0  0  0  0  0  0  0  0  0  0  0
  1  2  1  0
  1  3  1  0
  1  4  1  0
  3  5  1  0
  4  5  1  0
  2  6  2  0
  7  2  1  0
  8  6  1  0
  6  9  1  0
 10  7  2  0
 11  8  1  0
  8 12  2  0
 12 10  1  0
 11 13  1  0
 11 14  1  0
 13 15  1  0
 14 16  2  0
 14 17  1  0
 17 15  1  0
  1 18  1  0
  3 19  1  0
  3 20  1  0
  4 21  1  0
  4 22  1  0
  7 23  1  0
  9 24  1  0
  9 25  1  0
  9 26  1  0
 10 27  1  0
 13 28  1  0
 13 29  1  0
 15 30  1  0
 15 31  1  0
 17 32  1  0
M  END
$$$$

     RDKit          3D

 27 29  0  0  0  0  0  0  0  0999 V2000
    0.7200   10.4400   -8.3270 C   0  0  0  0  0  0  0  0  0  0  0  0
    0.5285    9.3162   -7.4310 N   0  0  0  0  0  0  0  0  0  0  0  0
    1.6520   11.8460   -7.9610 S   0  0  0  0  0  3  0  0  0  0  0  0
    2.5100   12.0090   -6.4990 C   0  0  0  0  0  0  0  0  0  0  0  0
    0.6010   12.9330   -7.9940 O   0  0  0  0  0  0  0  0  0  0  0  0
    3.4150   13.0050   -6.3620 N   0  0  0  0  0  0  0  0  0  0  0  0
    2.3160   11.2310   -5.4170 N   0  0  0  0  0  0  0  0  0  0  0  0
    3.8770   12.8740   -5.1010 C   0  0  0  0  0  0  0  0  0  0  0  0
    3.1650   11.7250   -4.4860 C   0  0  0  0  0  0  0  0  0  0  0  0
    4.8200   13.5610   -4.3510 C   0  0  0  0  0  0  0  0  0  0  0  0
    3.4510   11.3720   -3.1790 C   0  0  0  0  0  0  0  0  0  0  0  0
    5.0840   13.1730   -3.0410 C   0  0  0  0  0  0  0  0  0  0  0  0
    4.4040   12.1030   -2.4750 C   0  0  0  0  0  0  0  0  0  0  0  0
    0.3527    8.0507   -7.8194 C   0  0  0  0  0  0  0  0  0  0  0  0
    0.5026    9.3973   -6.0980 N   0  0  0  0  0  0  0  0  0  0  0  0
    0.2158    7.3431   -6.6762 C   0  0  0  0  0  0  0  0  0  0  0  0
    0.3107    8.1887   -5.6290 N   0  0  0  0  0  0  0  0  0  0  0  0
    1.1710   10.0170   -9.2368 H   0  0  0  0  0  0  0  0  0  0  0  0
   -0.2935   10.8675   -8.3306 H   0  0  0  0  0  0  0  0  0  0  0  0
    0.8473   13.6496   -7.3568 H   0  0  0  0  0  0  0  0  0  0  0  0
    1.6666   10.4374   -5.3198 H   0  0  0  0  0  0  0  0  0  0  0  0
    5.3592   14.4125   -4.7917 H   0  0  0  0  0  0  0  0  0  0  0  0
    2.9330   10.5262   -2.7032 H   0  0  0  0  0  0  0  0  0  0  0  0
    5.8358   13.7172   -2.4505 H   0  0  0  0  0  0  0  0  0  0  0  0
    4.6259   11.8232   -1.4346 H   0  0  0  0  0  0  0  0  0  0  0  0
    0.3252    7.6664   -8.8497 H   0  0  0  0  0  0  0  0  0  0  0  0
    0.0537    6.2571   -6.6103 H   0  0  0  0  0  0  0  0  0  0  0  0
  1  2  1  0
  3  1  1  0
  4  3  1  0
  3  5  1  1
  6  4  2  0
  4  7  1  0
  8  6  1  0
  9  7  1  0
  9  8  2  0
  8 10  1  0
 11  9  1  0
 10 12  2  0
 11 13  2  0
 12 13  1  0
  2 14  1  0
  2 15  1  0
 14 16  2  0
 15 17  2  0
 17 16  1  0
  1 18  1  0
  1 19  1  0
  5 20  1  0
  7 21  1  0
 10 22  1  0
 11 23  1  0
 12 24  1  0
 13 25  1  0
 14 26  1  0
 16 27  1  0
M  CHG  1   3   1
M  END
$$$$

     RDKit          3D

 36 37  0  0  0  0  0  0  0  0999 V2000
   -4.7543    8.9293   -3.7069 N   0  0  0  0  0  4  0  0  0  0  0  0
   -6.0298    8.2404   -3.6724 C   0  0  0  0  0  0  0  0  0  0  0  0
   -3.7950    8.1420   -2.9570 C   0  0  0  0  0  0  0  0  0  0  0  0
   -4.8762   10.2780   -3.1405 C   0  0  0  0  0  0  0  0  0  0  0  0
   -2.4260    8.5890   -3.4360 C   0  0  0  0  0  0  0  0  0  0  0  0
   -1.4220    7.4430   -3.4690 C   0  0  0  0  0  0  0  0  0  0  0  0
   -0.1701    7.9713   -3.9750 N   0  0  0  0  0  0  0  0  0  0  0  0
    0.4697    8.9803   -3.4328 C   0  0  0  0  0  0  0  0  0  0  0  0
    0.5203    7.4427   -5.1427 C   0  0  0  0  0  0  0  0  0  0  0  0
    0.0981    9.7065   -2.3835 N   0  0  0  0  0  0  0  0  0  0  0  0
    1.5901    9.2150   -4.0808 N   0  0  0  0  0  0  0  0  0  0  0  0
    1.7349    8.3611   -5.2579 C   0  0  0  0  0  0  0  0  0  0  0  0
   -7.2741    9.1554   -3.4660 C   0  0  0  0  0  0  0  0  0  0  0  0
   -6.6617    7.9385   -5.0682 C   0  0  0  0  0  0  0  0  0  0  0  0
   -7.7682    8.8459   -4.8012 O   0  0  0  0  0  0  0  0  0  0  0  0
   -4.4378    9.0337   -4.6814 H   0  0  0  0  0  0  0  0  0  0  0  0
   -5.7368    7.4536   -2.9616 H   0  0  0  0  0  0  0  0  0  0  0  0
   -3.9039    8.3313   -1.8789 H   0  0  0  0  0  0  0  0  0  0  0  0
   -3.9460    7.0638   -3.1143 H   0  0  0  0  0  0  0  0  0  0  0  0
   -5.2138   10.2080   -2.0959 H   0  0  0  0  0  0  0  0  0  0  0  0
   -3.8985   10.7808   -3.1770 H   0  0  0  0  0  0  0  0  0  0  0  0
   -5.6078   10.8561   -3.7242 H   0  0  0  0  0  0  0  0  0  0  0  0
   -2.5239    9.0028   -4.4505 H   0  0  0  0  0  0  0  0  0  0  0  0
   -2.0519    9.3437   -2.7286 H   0  0  0  0  0  0  0  0  0  0  0  0
   -1.2773    7.0418   -2.4550 H   0  0  0  0  0  0  0  0  0  0  0  0
   -1.7861    6.6289   -4.1129 H   0  0  0  0  0  0  0  0  0  0  0  0
    0.8264    6.3982   -4.9836 H   0  0  0  0  0  0  0  0  0  0  0  0
   -0.1031    7.4272   -6.0488 H   0  0  0  0  0  0  0  0  0  0  0  0
    0.6952   10.4784   -2.0540 H   0  0  0  0  0  0  0  0  0  0  0  0
    2.2846    9.9187   -3.7922 H   0  0  0  0  0  0  0  0  0  0  0  0
    2.6730    7.7879   -5.2216 H   0  0  0  0  0  0  0  0  0  0  0  0
    1.7780    8.9189   -6.2050 H   0  0  0  0  0  0  0  0  0  0  0  0
   -7.9412    8.8212   -2.6577 H   0  0  0  0  0  0  0  0  0  0  0  0
   -7.1343   10.2048   -3.1674 H   0  0  0  0  0  0  0  0  0  0  0  0
   -6.0315    8.2445   -5.9163 H   0  0  0  0  0  0  0  0  0  0  0  0
   -6.8683    6.8980   -5.3592 H   0  0  0  0  0  0  0  0  0  0  0  0
  1  2  1  0
  3  1  1  0
  1  4  1  0
  5  3  1  0
  6  5  1  0
  6  7  1  0
  7  8  1  0
  7  9  1  0
  8 10  2  3
  8 11  1  0
  9 12  1  0
 12 11  1  0
  2 13  1  0
  2 14  1  0
 13 15  1  0
 14 15  1  0
  1 16  1  0
  2 17  1  0
  3 18  1  0
  3 19  1  0
  4 20  1  0
  4 21  1  0
  4 22  1  0
  5 23  1  0
  5 24  1  0
  6 25  1  0
  6 26  1  0
  9 27  1  0
  9 28  1  0
 10 29  1  0
 11 30  1  0
 12 31  1  0
 12 32  1  0
 13 33  1  0
 13 34  1  0
 14 35  1  0
 14 36  1  0
M  CHG  1   1   1
M  END
$$$$

     RDKit          3D

 30 32  0  0  0  0  0  0  0  0999 V2000
    0.7115   10.3898   -8.2870 N   0  0  0  0  0  0  0  0  0  0  0  0
    0.5200    9.2660   -7.3910 C   0  0  0  0  0  0  0  0  0  0  0  0
    1.7511   11.2270   -8.2512 C   0  0  0  0  0  0  0  0  0  0  0  0
   -0.1267   10.7371   -9.2673 N   0  0  0  0  0  0  0  0  0  0  0  0
    1.5302   12.1120   -9.2483 C   0  0  0  0  0  0  0  0  0  0  0  0
    0.3708   11.7941   -9.8611 N   0  0  0  0  0  0  0  0  0  0  0  0
    0.2430    9.2710   -5.9990 C   0  0  0  0  0  0  0  0  0  0  0  0
    0.5800    8.0950   -8.0410 N   0  0  0  0  0  0  0  0  0  0  0  0
    0.0730    8.0370   -5.3300 C   0  0  0  0  0  0  0  0  0  0  0  0
    0.1340   10.5440   -5.1780 C   0  0  0  0  0  0  0  0  0  0  0  0
    0.4320    6.9230   -7.4130 C   0  0  0  0  0  0  0  0  0  0  0  0
   -0.1967    7.9617   -3.9073 N   0  0  0  0  0  0  0  0  0  0  0  0
    0.1710    6.8500   -6.0490 C   0  0  0  0  0  0  0  0  0  0  0  0
   -1.3668    7.3192   -3.3370 C   0  0  0  0  0  0  0  0  0  0  0  0
    0.5935    8.4697   -2.9788 C   0  0  0  0  0  0  0  0  0  0  0  0
   -0.9920    7.2165   -1.8742 C   0  0  0  0  0  0  0  0  0  0  0  0
    1.5794    9.1629   -3.2145 O   0  0  0  0  0  0  0  0  0  0  0  0
    0.1234    8.1344   -1.7798 N   0  0  0  0  0  0  0  0  0  0  0  0
    2.6049   11.2017   -7.5581 H   0  0  0  0  0  0  0  0  0  0  0  0
    2.1871   12.9527   -9.5162 H   0  0  0  0  0  0  0  0  0  0  0  0
    1.1277   10.8195   -4.7950 H   0  0  0  0  0  0  0  0  0  0  0  0
   -0.2533   11.3563   -5.8106 H   0  0  0  0  0  0  0  0  0  0  0  0
   -0.5513   10.3782   -4.3337 H   0  0  0  0  0  0  0  0  0  0  0  0
    0.5192    5.9915   -7.9915 H   0  0  0  0  0  0  0  0  0  0  0  0
    0.0451    5.8774   -5.5507 H   0  0  0  0  0  0  0  0  0  0  0  0
   -2.2677    7.9349   -3.4759 H   0  0  0  0  0  0  0  0  0  0  0  0
   -1.6098    6.3516   -3.8002 H   0  0  0  0  0  0  0  0  0  0  0  0
   -1.8234    7.5311   -1.2263 H   0  0  0  0  0  0  0  0  0  0  0  0
   -0.7507    6.1932   -1.5507 H   0  0  0  0  0  0  0  0  0  0  0  0
    0.5073    8.4859   -0.8910 H   0  0  0  0  0  0  0  0  0  0  0  0
  1  2  1  0
  1  3  1  0
  1  4  1  0
  3  5  2  0
  4  6  2  0
  6  5  1  0
  2  7  2  0
  2  8  1  0
  9  7  1  0
  7 10  1  0
  8 11  2  0
 12  9  1  0
 13  9  2  0
 11 13  1  0
 12 14  1  0
 12 15  1  0
 14 16  1  0
 15 17  2  0
 15 18  1  0
 18 16  1  0
  3 19  1  0
  5 20  1  0
 10 21  1  0
 10 22  1  0
 10 23  1  0
 11 24  1  0
 13 25  1  0
 14 26  1  0
 14 27  1  0
 16 28  1  0
 16 29  1  0
 18 30  1  0
M  END
$$$$

     RDKit          3D

 11 10  0  0  0  0  0  0  0  0999 V2000
   -0.1850    7.9650   -3.9690 O   0  0  0  0  0  0  0  0  0  0  0  0
    0.0847    8.0403   -5.3917 C   0  0  0  0  0  0  0  0  0  0  0  0
   -1.4369    7.4367   -3.4630 C   0  0  0  0  0  0  0  0  0  0  0  0
   -1.2021    6.3026   -2.5973 C   0  0  0  0  0  0  0  0  0  0  0  0
   -1.0615    5.4162   -1.9029 N   0  0  0  0  0  0  0  0  0  0  0  0
    1.0060    9.1161   -5.6826 C   0  0  0  0  0  0  0  0  0  0  0  0
    1.7352    9.9424   -5.9530 N   0  0  0  0  0  0  0  0  0  0  0  0
    0.5237    7.0889   -5.7265 H   0  0  0  0  0  0  0  0  0  0  0  0
   -0.8606    8.2323   -5.9205 H   0  0  0  0  0  0  0  0  0  0  0  0
   -1.9569    8.2224   -2.8952 H   0  0  0  0  0  0  0  0  0  0  0  0
   -2.0518    7.1095   -4.3144 H   0  0  0  0  0  0  0  0  0  0  0  0
  1  2  1  0
  1  3  1  0
  3  4  1  0
  4  5  3  0
  2  6  1  0
  6  7  3  0
  2  8  1  0
  2  9  1  0
  3 10  1  0
  3 11  1  0
M  END
$$$$

     RDKit          3D

 15 15  0  0  0  0  0  0  0  0999 V2000
   -0.1850    7.9650   -3.9690 O   0  0  0  0  0  0  0  0  0  0  0  0
   -1.4369    7.4367   -3.4630 C   0  0  0  0  0  0  0  0  0  0  0  0
    0.0847    8.0403   -5.3917 C   0  0  0  0  0  0  0  0  0  0  0  0
    1.2130    8.9056   -5.6545 C   0  0  0  0  0  0  0  0  0  0  0  0
    2.1003    9.5675   -5.9036 N   0  0  0  0  0  0  0  0  0  0  0  0
   -1.3312    6.0676   -2.7262 C   0  0  0  0  0  0  0  0  0  0  0  0
   -1.8790    7.9894   -2.0709 C   0  0  0  0  0  0  0  0  0  0  0  0
   -1.7142    6.6784   -1.4602 O   0  0  0  0  0  0  0  0  0  0  0  0
   -2.0237    7.5818   -4.3820 H   0  0  0  0  0  0  0  0  0  0  0  0
    0.3075    7.0319   -5.7705 H   0  0  0  0  0  0  0  0  0  0  0  0
   -0.8011    8.4518   -5.8976 H   0  0  0  0  0  0  0  0  0  0  0  0
   -2.0449    5.3129   -3.0884 H   0  0  0  0  0  0  0  0  0  0  0  0
   -0.3998    5.4859   -2.7900 H   0  0  0  0  0  0  0  0  0  0  0  0
   -1.2044    8.7568   -1.6635 H   0  0  0  0  0  0  0  0  0  0  0  0
   -2.8384    8.5187   -1.9745 H   0  0  0  0  0  0  0  0  0  0  0  0
  1  2  1  0
  1  3  1  0
  3  4  1  0
  4  5  3  0
  2  6  1  0
  2  7  1  0
  6  8  1  0
  7  8  1  0
  2  9  1  0
  3 10  1  0
  3 11  1  0
  6 12  1  0
  6 13  1  0
  7 14  1  0
  7 15  1  0
M  END
$$$$

     RDKit          3D

 39 40  0  0  0  0  0  0  0  0999 V2000
   -0.1701    7.9713   -3.9750 N   0  0  0  0  0  4  0  0  0  0  0  0
    0.7948    7.9621   -2.8927 C   0  0  0  0  0  0  0  0  0  0  0  0
   -1.4220    7.4430   -3.4690 C   0  0  0  0  0  0  0  0  0  0  0  0
    0.3116    7.1720   -5.1081 C   0  0  0  0  0  0  0  0  0  0  0  0
   -2.4260    8.5890   -3.4360 C   0  0  0  0  0  0  0  0  0  0  0  0
   -3.7950    8.1420   -2.9570 C   0  0  0  0  0  0  0  0  0  0  0  0
   -4.7543    8.9293   -3.7069 N   0  0  0  0  0  4  0  0  0  0  0  0
   -6.0277    8.2363   -3.6794 C   0  0  0  0  0  0  0  0  0  0  0  0
   -4.8823   10.2754   -3.1355 C   0  0  0  0  0  0  0  0  0  0  0  0
   -7.2395    9.0911   -3.2007 C   0  0  0  0  0  0  0  0  0  0  0  0
   -6.7869    8.1834   -5.0430 C   0  0  0  0  0  0  0  0  0  0  0  0
   -7.8560    9.0209   -4.5188 O   0  0  0  0  0  0  0  0  0  0  0  0
    2.2559    8.3172   -3.3017 C   0  0  0  0  0  0  0  0  0  0  0  0
    0.8634    9.2752   -2.0503 C   0  0  0  0  0  0  0  0  0  0  0  0
    2.2152    9.5448   -2.5182 O   0  0  0  0  0  0  0  0  0  0  0  0
   -0.3069    8.9338   -4.3153 H   0  0  0  0  0  0  0  0  0  0  0  0
    0.5085    6.9887   -2.4676 H   0  0  0  0  0  0  0  0  0  0  0  0
   -1.7867    6.6438   -4.1310 H   0  0  0  0  0  0  0  0  0  0  0  0
   -1.2845    7.0208   -2.4626 H   0  0  0  0  0  0  0  0  0  0  0  0
    0.7509    6.2349   -4.7353 H   0  0  0  0  0  0  0  0  0  0  0  0
   -0.5297    6.9415   -5.7782 H   0  0  0  0  0  0  0  0  0  0  0  0
    1.0747    7.7406   -5.6598 H   0  0  0  0  0  0  0  0  0  0  0  0
   -2.0507    9.3686   -2.7567 H   0  0  0  0  0  0  0  0  0  0  0  0
   -2.5363    8.9693   -4.4622 H   0  0  0  0  0  0  0  0  0  0  0  0
   -3.9395    7.0701   -3.1575 H   0  0  0  0  0  0  0  0  0  0  0  0
   -3.9115    8.2882   -1.8730 H   0  0  0  0  0  0  0  0  0  0  0  0
   -4.4349    9.0386   -4.6800 H   0  0  0  0  0  0  0  0  0  0  0  0
   -5.6786    7.3376   -3.1498 H   0  0  0  0  0  0  0  0  0  0  0  0
   -3.8894   10.7451   -3.0779 H   0  0  0  0  0  0  0  0  0  0  0  0
   -5.5393   10.8839   -3.7743 H   0  0  0  0  0  0  0  0  0  0  0  0
   -5.3142   10.2058   -2.1263 H   0  0  0  0  0  0  0  0  0  0  0  0
   -7.8333    8.6135   -2.4073 H   0  0  0  0  0  0  0  0  0  0  0  0
   -7.0632   10.0715   -2.7339 H   0  0  0  0  0  0  0  0  0  0  0  0
   -6.2338    8.6401   -5.8769 H   0  0  0  0  0  0  0  0  0  0  0  0
   -7.0289    7.2100   -5.4945 H   0  0  0  0  0  0  0  0  0  0  0  0
    3.0038    7.5913   -2.9500 H   0  0  0  0  0  0  0  0  0  0  0  0
    2.5276    8.3603   -4.3667 H   0  0  0  0  0  0  0  0  0  0  0  0
    0.1288   10.0359   -2.3534 H   0  0  0  0  0  0  0  0  0  0  0  0
    0.6572    9.2412   -0.9703 H   0  0  0  0  0  0  0  0  0  0  0  0
  1  2  1  0
  3  1  1  0
  1  4  1  0
  3  5  1  0
  5  6  1  0
  6  7  1  0
  7  8  1  0
  7  9  1  0
  8 10  1  0
  8 11  1  0
 10 12  1  0
 11 12  1  0
  2 13  1  0
  2 14  1  0
 13 15  1  0
 14 15  1  0
  1 16  1  0
  2 17  1  0
  3 18  1  0
  3 19  1  0
  4 20  1  0
  4 21  1  0
  4 22  1  0
  5 23  1  0
  5 24  1  0
  6 25  1  0
  6 26  1  0
  7 27  1  0
  8 28  1  0
  9 29  1  0
  9 30  1  0
  9 31  1  0
 10 32  1  0
 10 33  1  0
 11 34  1  0
 11 35  1  0
 13 36  1  0
 13 37  1  0
 14 38  1  0
 14 39  1  0
M  CHG  2   1   1   7   1
M  END
$$$$

     RDKit          3D

 28 30  0  0  0  0  0  0  0  0999 V2000
    0.7115   10.3898   -8.2870 N   0  0  0  0  0  0  0  0  0  0  0  0
    0.5200    9.2660   -7.3910 C   0  0  0  0  0  0  0  0  0  0  0  0
    1.5752   11.3883   -8.0865 C   0  0  0  0  0  0  0  0  0  0  0  0
    0.0492   10.5758   -9.4320 N   0  0  0  0  0  0  0  0  0  0  0  0
    1.4272   12.2064   -9.1519 C   0  0  0  0  0  0  0  0  0  0  0  0
    0.4845   11.6899   -9.9675 N   0  0  0  0  0  0  0  0  0  0  0  0
    0.2430    9.2710   -5.9990 C   0  0  0  0  0  0  0  0  0  0  0  0
    0.5800    8.0950   -8.0410 N   0  0  0  0  0  0  0  0  0  0  0  0
    0.0730    8.0370   -5.3300 C   0  0  0  0  0  0  0  0  0  0  0  0
    0.1340   10.5440   -5.1780 C   0  0  0  0  0  0  0  0  0  0  0  0
    0.4320    6.9230   -7.4130 C   0  0  0  0  0  0  0  0  0  0  0  0
   -0.1967    7.9617   -3.9073 C   0  0  0  0  0  0  0  0  0  0  0  0
    0.1710    6.8500   -6.0490 C   0  0  0  0  0  0  0  0  0  0  0  0
   -0.4224    6.5246   -3.3487 C   0  0  0  0  0  0  0  0  0  0  0  0
    1.0662    7.9659   -2.9888 C   0  0  0  0  0  0  0  0  0  0  0  0
    0.7956    6.6036   -2.5531 O   0  0  0  0  0  0  0  0  0  0  0  0
    2.2607   11.5172   -7.2360 H   0  0  0  0  0  0  0  0  0  0  0  0
    1.9834   13.1395   -9.3255 H   0  0  0  0  0  0  0  0  0  0  0  0
    1.1277   10.8195   -4.7950 H   0  0  0  0  0  0  0  0  0  0  0  0
   -0.2533   11.3563   -5.8106 H   0  0  0  0  0  0  0  0  0  0  0  0
   -0.5513   10.3782   -4.3337 H   0  0  0  0  0  0  0  0  0  0  0  0
    0.5192    5.9915   -7.9915 H   0  0  0  0  0  0  0  0  0  0  0  0
   -0.9661    8.7472   -3.8760 H   0  0  0  0  0  0  0  0  0  0  0  0
    0.0451    5.8774   -5.5507 H   0  0  0  0  0  0  0  0  0  0  0  0
   -1.3383    6.4209   -2.7484 H   0  0  0  0  0  0  0  0  0  0  0  0
   -0.5633    5.6857   -4.0461 H   0  0  0  0  0  0  0  0  0  0  0  0
    2.0134    8.0766   -3.5370 H   0  0  0  0  0  0  0  0  0  0  0  0
    1.1932    8.7622   -2.2405 H   0  0  0  0  0  0  0  0  0  0  0  0
  1  2  1  0
  1  3  1  0
  1  4  1  0
  3  5  2  0
  4  6  2  0
  6  5  1  0
  2  7  2  0
  2  8  1  0
  9  7  1  0
  7 10  1  0
  8 11  2  0
 12  9  1  0
 13  9  2  0
 11 13  1  0
 12 14  1  0
 12 15  1  0
 14 16  1  0
 15 16  1  0
  3 17  1  0
  5 18  1  0
 10 19  1  0
 10 20  1  0
 10 21  1  0
 11 22  1  0
 12 23  1  0
 13 24  1  0
 14 25  1  0
 14 26  1  0
 15 27  1  0
 15 28  1  0
M  END
$$$$

     RDKit          3D

 28 30  0  0  0  0  0  0  0  0999 V2000
   -0.1967    7.9617   -3.9073 C   0  0  0  0  0  0  0  0  0  0  0  0
    0.0730    8.0370   -5.3300 C   0  0  0  0  0  0  0  0  0  0  0  0
    0.2442    6.6363   -3.2164 C   0  0  0  0  0  0  0  0  0  0  0  0
    0.8762    8.6293   -2.9897 C   0  0  0  0  0  0  0  0  0  0  0  0
    1.2483    7.3388   -2.4284 O   0  0  0  0  0  0  0  0  0  0  0  0
    0.2430    9.2710   -5.9990 C   0  0  0  0  0  0  0  0  0  0  0  0
    0.1710    6.8500   -6.0490 C   0  0  0  0  0  0  0  0  0  0  0  0
    0.5200    9.2660   -7.3910 C   0  0  0  0  0  0  0  0  0  0  0  0
    0.1340   10.5440   -5.1780 C   0  0  0  0  0  0  0  0  0  0  0  0
    0.4320    6.9230   -7.4130 C   0  0  0  0  0  0  0  0  0  0  0  0
    0.7115   10.3898   -8.2870 N   0  0  0  0  0  0  0  0  0  0  0  0
    0.5800    8.0950   -8.0410 N   0  0  0  0  0  0  0  0  0  0  0  0
   -0.1559   10.7741   -9.2268 C   0  0  0  0  0  0  0  0  0  0  0  0
    1.7809   11.1901   -8.2915 N   0  0  0  0  0  0  0  0  0  0  0  0
    0.4134   11.8469   -9.8195 C   0  0  0  0  0  0  0  0  0  0  0  0
    1.6035   12.0868   -9.2306 N   0  0  0  0  0  0  0  0  0  0  0  0
   -1.2432    8.2977   -3.9523 H   0  0  0  0  0  0  0  0  0  0  0  0
   -0.5459    6.1674   -2.6116 H   0  0  0  0  0  0  0  0  0  0  0  0
    0.5409    5.7744   -3.8320 H   0  0  0  0  0  0  0  0  0  0  0  0
    1.6883    9.1233   -3.5433 H   0  0  0  0  0  0  0  0  0  0  0  0
    0.5845    9.4514   -2.3195 H   0  0  0  0  0  0  0  0  0  0  0  0
    0.0451    5.8774   -5.5507 H   0  0  0  0  0  0  0  0  0  0  0  0
   -0.9123   10.8832   -5.1645 H   0  0  0  0  0  0  0  0  0  0  0  0
    0.4687   10.3464   -4.1489 H   0  0  0  0  0  0  0  0  0  0  0  0
    0.7667   11.3245   -5.6259 H   0  0  0  0  0  0  0  0  0  0  0  0
    0.5192    5.9915   -7.9915 H   0  0  0  0  0  0  0  0  0  0  0  0
   -1.1264   10.3154   -9.4671 H   0  0  0  0  0  0  0  0  0  0  0  0
   -0.0217   12.4286  -10.6456 H   0  0  0  0  0  0  0  0  0  0  0  0
  1  2  1  0
  1  3  1  0
  1  4  1  0
  3  5  1  0
  4  5  1  0
  2  6  2  0
  7  2  1  0
  8  6  1  0
  6  9  1  0
 10  7  2  0
 11  8  1  0
  8 12  2  0
 12 10  1  0
 11 13  1  0
 11 14  1  0
 13 15  2  0
 14 16  2  0
 16 15  1  0
  1 17  1  0
  3 18  1  0
  3 19  1  0
  4 20  1  0
  4 21  1  0
  7 22  1  0
  9 23  1  0
  9 24  1  0
  9 25  1  0
 10 26  1  0
 13 27  1  0
 15 28  1  0
M  END
$$$$

     RDKit          3D

 17 17  0  0  0  0  0  0  0  0999 V2000
   -0.1850    7.9650   -3.9690 O   0  0  0  0  0  0  0  0  0  0  0  0
    0.0847    8.0403   -5.3917 C   0  0  0  0  0  0  0  0  0  0  0  0
   -1.4369    7.4367   -3.4630 C   0  0  0  0  0  0  0  0  0  0  0  0
   -1.2285    6.7246   -2.2219 C   0  0  0  0  0  0  0  0  0  0  0  0
   -1.1106    6.1667   -1.2408 N   0  0  0  0  0  0  0  0  0  0  0  0
    0.1153    9.2652   -6.0246 C   0  0  0  0  0  0  0  0  0  0  0  0
    0.3108    6.8868   -6.1132 C   0  0  0  0  0  0  0  0  0  0  0  0
    0.3740    9.3158   -7.3805 C   0  0  0  0  0  0  0  0  0  0  0  0
    0.5660    6.9795   -7.4676 C   0  0  0  0  0  0  0  0  0  0  0  0
    0.5942    8.1823   -8.0793 N   0  0  0  0  0  4  0  0  0  0  0  0
    0.8398    8.2507   -9.3744 O   0  0  0  0  0  1  0  0  0  0  0  0
   -2.1354    8.2685   -3.2887 H   0  0  0  0  0  0  0  0  0  0  0  0
   -1.8512    6.7385   -4.2053 H   0  0  0  0  0  0  0  0  0  0  0  0
   -0.0639   10.1902   -5.4568 H   0  0  0  0  0  0  0  0  0  0  0  0
    0.2882    5.9056   -5.6165 H   0  0  0  0  0  0  0  0  0  0  0  0
    0.4007   10.2877   -7.8949 H   0  0  0  0  0  0  0  0  0  0  0  0
    0.7477    6.0657   -8.0523 H   0  0  0  0  0  0  0  0  0  0  0  0
  1  2  1  0
  1  3  1  0
  3  4  1  0
  4  5  3  0
  6  2  2  0
  2  7  1  0
  8  6  1  0
  9  7  2  0
  8 10  2  0
 10  9  1  0
 10 11  1  0
  3 12  1  0
  3 13  1  0
  6 14  1  0
  7 15  1  0
  8 16  1  0
  9 17  1  0
M  CHG  2  10   1  11  -1
M  END
$$$$

     RDKit          3D

 27 29  0  0  0  0  0  0  0  0999 V2000
    0.7200   10.4400   -8.3270 C   0  0  0  0  0  0  0  0  0  0  0  0
    0.5285    9.3162   -7.4310 N   0  0  0  0  0  0  0  0  0  0  0  0
    1.6520   11.8460   -7.9610 S   0  0  0  0  0  3  0  0  0  0  0  0
    2.5100   12.0090   -6.4990 C   0  0  0  0  0  0  0  0  0  0  0  0
    0.6010   12.9330   -7.9940 O   0  0  0  0  0  0  0  0  0  0  0  0
    3.4150   13.0050   -6.3620 N   0  0  0  0  0  0  0  0  0  0  0  0
    2.3160   11.2310   -5.4170 N   0  0  0  0  0  0  0  0  0  0  0  0
    3.8770   12.8740   -5.1010 C   0  0  0  0  0  0  0  0  0  0  0  0
    3.1650   11.7250   -4.4860 C   0  0  0  0  0  0  0  0  0  0  0  0
    4.8200   13.5610   -4.3510 C   0  0  0  0  0  0  0  0  0  0  0  0
    3.4510   11.3720   -3.1790 C   0  0  0  0  0  0  0  0  0  0  0  0
    5.0840   13.1730   -3.0410 C   0  0  0  0  0  0  0  0  0  0  0  0
    4.4040   12.1030   -2.4750 C   0  0  0  0  0  0  0  0  0  0  0  0
    0.5858    8.0321   -7.7929 C   0  0  0  0  0  0  0  0  0  0  0  0
    0.2694    9.4159   -6.1245 N   0  0  0  0  0  0  0  0  0  0  0  0
    0.3523    7.3322   -6.6607 C   0  0  0  0  0  0  0  0  0  0  0  0
    0.1601    8.2008   -5.6461 N   0  0  0  0  0  0  0  0  0  0  0  0
    1.1710   10.0170   -9.2368 H   0  0  0  0  0  0  0  0  0  0  0  0
   -0.2935   10.8675   -8.3306 H   0  0  0  0  0  0  0  0  0  0  0  0
   -0.1826   12.6188   -8.5110 H   0  0  0  0  0  0  0  0  0  0  0  0
    1.6666   10.4374   -5.3198 H   0  0  0  0  0  0  0  0  0  0  0  0
    5.3592   14.4125   -4.7917 H   0  0  0  0  0  0  0  0  0  0  0  0
    2.9330   10.5262   -2.7032 H   0  0  0  0  0  0  0  0  0  0  0  0
    5.8358   13.7172   -2.4505 H   0  0  0  0  0  0  0  0  0  0  0  0
    4.6259   11.8232   -1.4346 H   0  0  0  0  0  0  0  0  0  0  0  0
    0.7813    7.6299   -8.7979 H   0  0  0  0  0  0  0  0  0  0  0  0
    0.3237    6.2356   -6.5796 H   0  0  0  0  0  0  0  0  0  0  0  0
  1  2  1  0
  3  1  1  0
  4  3  1  0
  3  5  1  1
  6  4  2  0
  4  7  1  0
  8  6  1  0
  9  7  1  0
  9  8  2  0
  8 10  1  0
 11  9  1  0
 10 12  2  0
 11 13  2  0
 12 13  1  0
  2 14  1  0
  2 15  1  0
 14 16  2  0
 15 17  2  0
 17 16  1  0
  1 18  1  0
  1 19  1  0
  5 20  1  0
  7 21  1  0
 10 22  1  0
 11 23  1  0
 12 24  1  0
 13 25  1  0
 14 26  1  0
 16 27  1  0
M  CHG  1   3   1
M  END
$$$$

     RDKit          3D

 15 15  0  0  0  0  0  0  0  0999 V2000
   -0.1850    7.9650   -3.9690 O   0  0  0  0  0  0  0  0  0  0  0  0
   -1.4369    7.4367   -3.4630 C   0  0  0  0  0  0  0  0  0  0  0  0
    0.0847    8.0403   -5.3917 C   0  0  0  0  0  0  0  0  0  0  0  0
    1.1114    9.0203   -5.6677 C   0  0  0  0  0  0  0  0  0  0  0  0
    1.9213    9.7717   -5.9267 N   0  0  0  0  0  0  0  0  0  0  0  0
   -1.3050    6.2037   -2.5192 C   0  0  0  0  0  0  0  0  0  0  0  0
   -2.0043    8.1614   -2.2014 C   0  0  0  0  0  0  0  0  0  0  0  0
   -1.8081    6.9707   -1.3874 O   0  0  0  0  0  0  0  0  0  0  0  0
   -1.9663    7.4031   -4.4266 H   0  0  0  0  0  0  0  0  0  0  0  0
    0.4211    7.0553   -5.7478 H   0  0  0  0  0  0  0  0  0  0  0  0
   -0.8379    8.3399   -5.9105 H   0  0  0  0  0  0  0  0  0  0  0  0
   -1.9482    5.3575   -2.8026 H   0  0  0  0  0  0  0  0  0  0  0  0
   -0.3400    5.6821   -2.4372 H   0  0  0  0  0  0  0  0  0  0  0  0
   -1.4038    9.0243   -1.8776 H   0  0  0  0  0  0  0  0  0  0  0  0
   -2.9965    8.6343   -2.2448 H   0  0  0  0  0  0  0  0  0  0  0  0
  1  2  1  0
  1  3  1  0
  3  4  1  0
  4  5  3  0
  2  6  1  0
  2  7  1  0
  6  8  1  0
  7  8  1  0
  2  9  1  0
  3 10  1  0
  3 11  1  0
  6 12  1  0
  6 13  1  0
  7 14  1  0
  7 15  1  0
M  END
$$$$

     RDKit          3D

 28 30  0  0  0  0  0  0  0  0999 V2000
   -0.1967    7.9617   -3.9073 C   0  0  0  0  0  0  0  0  0  0  0  0
    0.0730    8.0370   -5.3300 C   0  0  0  0  0  0  0  0  0  0  0  0
   -0.1074    6.5344   -3.2884 C   0  0  0  0  0  0  0  0  0  0  0  0
    1.0186    8.2838   -2.9810 C   0  0  0  0  0  0  0  0  0  0  0  0
    1.0495    6.9143   -2.4885 O   0  0  0  0  0  0  0  0  0  0  0  0
    0.2430    9.2710   -5.9990 C   0  0  0  0  0  0  0  0  0  0  0  0
    0.1710    6.8500   -6.0490 C   0  0  0  0  0  0  0  0  0  0  0  0
    0.5200    9.2660   -7.3910 C   0  0  0  0  0  0  0  0  0  0  0  0
    0.1340   10.5440   -5.1780 C   0  0  0  0  0  0  0  0  0  0  0  0
    0.4320    6.9230   -7.4130 C   0  0  0  0  0  0  0  0  0  0  0  0
    0.7115   10.3898   -8.2870 N   0  0  0  0  0  0  0  0  0  0  0  0
    0.5800    8.0950   -8.0410 N   0  0  0  0  0  0  0  0  0  0  0  0
    1.7736   11.1991   -8.2814 C   0  0  0  0  0  0  0  0  0  0  0  0
   -0.1492   10.7650   -9.2371 N   0  0  0  0  0  0  0  0  0  0  0  0
    1.5434   12.0957   -9.2660 C   0  0  0  0  0  0  0  0  0  0  0  0
    0.3563   11.8121   -9.8416 N   0  0  0  0  0  0  0  0  0  0  0  0
   -1.1215    8.5573   -3.9155 H   0  0  0  0  0  0  0  0  0  0  0  0
   -0.9873    6.2543   -2.6906 H   0  0  0  0  0  0  0  0  0  0  0  0
   -0.0473    5.6574   -3.9498 H   0  0  0  0  0  0  0  0  0  0  0  0
    1.9266    8.5797   -3.5269 H   0  0  0  0  0  0  0  0  0  0  0  0
    0.9536    9.1181   -2.2671 H   0  0  0  0  0  0  0  0  0  0  0  0
    0.0451    5.8774   -5.5507 H   0  0  0  0  0  0  0  0  0  0  0  0
   -0.9123   10.8832   -5.1645 H   0  0  0  0  0  0  0  0  0  0  0  0
    0.4687   10.3464   -4.1489 H   0  0  0  0  0  0  0  0  0  0  0  0
    0.7667   11.3245   -5.6259 H   0  0  0  0  0  0  0  0  0  0  0  0
    0.5192    5.9915   -7.9915 H   0  0  0  0  0  0  0  0  0  0  0  0
    2.6489   11.1472   -7.6172 H   0  0  0  0  0  0  0  0  0  0  0  0
    2.2131   12.9204   -9.5512 H   0  0  0  0  0  0  0  0  0  0  0  0
  1  2  1  0
  1  3  1  0
  1  4  1  0
  3  5  1  0
  4  5  1  0
  2  6  2  0
  7  2  1  0
  8  6  1  0
  6  9  1  0
 10  7  2  0
 11  8  1  0
  8 12  2  0
 12 10  1  0
 11 13  1  0
 11 14  1  0
 13 15  2  0
 14 16  2  0
 16 15  1  0
  1 17  1  0
  3 18  1  0
  3 19  1  0
  4 20  1  0
  4 21  1  0
  7 22  1  0
  9 23  1  0
  9 24  1  0
  9 25  1  0
 10 26  1  0
 13 27  1  0
 15 28  1  0
M  END
$$$$

     RDKit          3D

 10  9  0  0  0  0  0  0  0  0999 V2000
   -4.7430    8.9200   -3.6980 O   0  0  0  0  0  0  0  0  0  0  0  0
   -3.7837    8.1327   -2.9481 C   0  0  0  0  0  0  0  0  0  0  0  0
   -5.8490    8.1420   -4.1630 C   0  0  0  0  0  0  0  0  0  0  0  0
   -4.4089    7.5258   -1.7942 C   0  0  0  0  0  0  0  0  0  0  0  0
   -4.8627    7.0219   -0.8844 N   0  0  0  0  0  0  0  0  0  0  0  0
   -3.3799    7.3418   -3.5974 H   0  0  0  0  0  0  0  0  0  0  0  0
   -2.9755    8.7949   -2.6042 H   0  0  0  0  0  0  0  0  0  0  0  0
   -5.4758    7.2776   -4.7318 H   0  0  0  0  0  0  0  0  0  0  0  0
   -6.4364    7.7889   -3.3026 H   0  0  0  0  0  0  0  0  0  0  0  0
   -6.4855    8.7610   -4.8123 H   0  0  0  0  0  0  0  0  0  0  0  0
  1  2  1  0
  1  3  1  0
  2  4  1  0
  4  5  3  0
  2  6  1  0
  2  7  1  0
  3  8  1  0
  3  9  1  0
  3 10  1  0
M  END
$$$$

     RDKit          3D

 17 17  0  0  0  0  0  0  0  0999 V2000
   -0.1850    7.9650   -3.9690 O   0  0  0  0  0  0  0  0  0  0  0  0
    0.0847    8.0403   -5.3917 C   0  0  0  0  0  0  0  0  0  0  0  0
   -1.4369    7.4367   -3.4630 C   0  0  0  0  0  0  0  0  0  0  0  0
   -1.2007    6.5031   -2.3843 C   0  0  0  0  0  0  0  0  0  0  0  0
   -1.0602    5.7731   -1.5270 N   0  0  0  0  0  0  0  0  0  0  0  0
    0.1153    9.2652   -6.0246 C   0  0  0  0  0  0  0  0  0  0  0  0
    0.3108    6.8868   -6.1132 C   0  0  0  0  0  0  0  0  0  0  0  0
    0.3740    9.3158   -7.3805 C   0  0  0  0  0  0  0  0  0  0  0  0
    0.5660    6.9795   -7.4676 C   0  0  0  0  0  0  0  0  0  0  0  0
    0.5942    8.1823   -8.0793 N   0  0  0  0  0  4  0  0  0  0  0  0
    0.8398    8.2507   -9.3744 O   0  0  0  0  0  1  0  0  0  0  0  0
   -2.0555    8.2673   -3.0922 H   0  0  0  0  0  0  0  0  0  0  0  0
   -1.9533    6.9099   -4.2790 H   0  0  0  0  0  0  0  0  0  0  0  0
   -0.0639   10.1902   -5.4568 H   0  0  0  0  0  0  0  0  0  0  0  0
    0.2882    5.9056   -5.6165 H   0  0  0  0  0  0  0  0  0  0  0  0
    0.4007   10.2877   -7.8949 H   0  0  0  0  0  0  0  0  0  0  0  0
    0.7477    6.0657   -8.0523 H   0  0  0  0  0  0  0  0  0  0  0  0
  1  2  1  0
  1  3  1  0
  3  4  1  0
  4  5  3  0
  6  2  2  0
  2  7  1  0
  8  6  1  0
  9  7  2  0
  8 10  2  0
 10  9  1  0
 10 11  1  0
  3 12  1  0
  3 13  1  0
  6 14  1  0
  7 15  1  0
  8 16  1  0
  9 17  1  0
M  CHG  2  10   1  11  -1
M  END
$$$$

     RDKit          3D

 10  9  0  0  0  0  0  0  0  0999 V2000
   -4.7430    8.9200   -3.6980 O   0  0  0  0  0  0  0  0  0  0  0  0
   -3.7837    8.1327   -2.9481 C   0  0  0  0  0  0  0  0  0  0  0  0
   -5.8490    8.1420   -4.1630 C   0  0  0  0  0  0  0  0  0  0  0  0
   -4.4582    7.2211   -2.0511 C   0  0  0  0  0  0  0  0  0  0  0  0
   -4.9476    6.4830   -1.3416 N   0  0  0  0  0  0  0  0  0  0  0  0
   -3.1635    7.5556   -3.6498 H   0  0  0  0  0  0  0  0  0  0  0  0
   -3.1563    8.8132   -2.3538 H   0  0  0  0  0  0  0  0  0  0  0  0
   -6.7897    8.6150   -3.8445 H   0  0  0  0  0  0  0  0  0  0  0  0
   -5.8209    8.0845   -5.2611 H   0  0  0  0  0  0  0  0  0  0  0  0
   -5.7872    7.1280   -3.7411 H   0  0  0  0  0  0  0  0  0  0  0  0
  1  2  1  0
  1  3  1  0
  2  4  1  0
  4  5  3  0
  2  6  1  0
  2  7  1  0
  3  8  1  0
  3  9  1  0
  3 10  1  0
M  END
$$$$

     RDKit          3D

 17 17  0  0  0  0  0  0  0  0999 V2000
   -0.1850    7.9650   -3.9690 O   0  0  0  0  0  0  0  0  0  0  0  0
    0.0847    8.0403   -5.3917 C   0  0  0  0  0  0  0  0  0  0  0  0
   -1.4369    7.4367   -3.4630 C   0  0  0  0  0  0  0  0  0  0  0  0
   -1.2460    6.8137   -2.1722 C   0  0  0  0  0  0  0  0  0  0  0  0
   -1.1420    6.3250   -1.1534 N   0  0  0  0  0  0  0  0  0  0  0  0
    0.7671    9.1216   -5.9086 C   0  0  0  0  0  0  0  0  0  0  0  0
   -0.3410    7.0305   -6.2292 C   0  0  0  0  0  0  0  0  0  0  0  0
    1.0141    9.1747   -7.2666 C   0  0  0  0  0  0  0  0  0  0  0  0
   -0.0743    7.1207   -7.5815 C   0  0  0  0  0  0  0  0  0  0  0  0
    0.5941    8.1823   -8.0793 N   0  0  0  0  0  4  0  0  0  0  0  0
    0.8397    8.2507   -9.3744 O   0  0  0  0  0  1  0  0  0  0  0  0
   -2.1613    8.2585   -3.3633 H   0  0  0  0  0  0  0  0  0  0  0  0
   -1.8115    6.6801   -4.1681 H   0  0  0  0  0  0  0  0  0  0  0  0
    1.1102    9.9313   -5.2479 H   0  0  0  0  0  0  0  0  0  0  0  0
   -0.8859    6.1645   -5.8254 H   0  0  0  0  0  0  0  0  0  0  0  0
    1.5575   10.0327   -7.6891 H   0  0  0  0  0  0  0  0  0  0  0  0
   -0.4094    6.3208   -8.2582 H   0  0  0  0  0  0  0  0  0  0  0  0
  1  2  1  0
  1  3  1  0
  3  4  1  0
  4  5  3  0
  6  2  2  0
  2  7  1  0
  8  6  1  0
  9  7  2  0
  8 10  2  0
 10  9  1  0
 10 11  1  0
  3 12  1  0
  3 13  1  0
  6 14  1  0
  7 15  1  0
  8 16  1  0
  9 17  1  0
M  CHG  2  10   1  11  -1
M  END
$$$$

     RDKit          3D

 30 30  0  0  0  0  0  0  0  0999 V2000
   -4.7543    8.9293   -3.7069 O   0  0  0  0  0  0  0  0  0  0  0  0
   -6.0038    8.7566   -2.9916 C   0  0  0  0  0  0  0  0  0  0  0  0
   -3.7950    8.1420   -2.9570 C   0  0  0  0  0  0  0  0  0  0  0  0
   -2.4260    8.5890   -3.4360 C   0  0  0  0  0  0  0  0  0  0  0  0
   -1.4220    7.4430   -3.4690 C   0  0  0  0  0  0  0  0  0  0  0  0
   -0.1701    7.9713   -3.9750 N   0  0  0  0  0  4  0  0  0  0  0  0
    0.6411    8.3740   -2.8427 C   0  0  0  0  0  0  0  0  0  0  0  0
    0.5292    6.9662   -4.7846 C   0  0  0  0  0  0  0  0  0  0  0  0
    1.3619    9.5927   -3.1361 C   0  0  0  0  0  0  0  0  0  0  0  0
    1.9368   10.5534   -3.3212 N   0  0  0  0  0  0  0  0  0  0  0  0
   -6.6531   10.0701   -2.4611 C   0  0  0  0  0  0  0  0  0  0  0  0
   -7.2775    8.6589   -3.8899 C   0  0  0  0  0  0  0  0  0  0  0  0
   -7.7866    9.9169   -3.3634 O   0  0  0  0  0  0  0  0  0  0  0  0
   -5.6683    7.9422   -2.3326 H   0  0  0  0  0  0  0  0  0  0  0  0
   -3.9039    8.3313   -1.8789 H   0  0  0  0  0  0  0  0  0  0  0  0
   -3.9460    7.0638   -3.1143 H   0  0  0  0  0  0  0  0  0  0  0  0
   -2.5239    9.0028   -4.4505 H   0  0  0  0  0  0  0  0  0  0  0  0
   -2.0519    9.3437   -2.7286 H   0  0  0  0  0  0  0  0  0  0  0  0
   -1.2773    7.0418   -2.4550 H   0  0  0  0  0  0  0  0  0  0  0  0
   -1.7861    6.6289   -4.1129 H   0  0  0  0  0  0  0  0  0  0  0  0
   -0.3514    8.7825   -4.5833 H   0  0  0  0  0  0  0  0  0  0  0  0
   -0.0111    8.5412   -1.9728 H   0  0  0  0  0  0  0  0  0  0  0  0
    1.3681    7.5769   -2.6280 H   0  0  0  0  0  0  0  0  0  0  0  0
   -0.2040    6.2719   -5.2209 H   0  0  0  0  0  0  0  0  0  0  0  0
    1.0851    7.4669   -5.5910 H   0  0  0  0  0  0  0  0  0  0  0  0
    1.2307    6.4064   -4.1485 H   0  0  0  0  0  0  0  0  0  0  0  0
   -6.9256   10.0313   -1.3961 H   0  0  0  0  0  0  0  0  0  0  0  0
   -6.0738   11.0051   -2.4691 H   0  0  0  0  0  0  0  0  0  0  0  0
   -7.0629    8.6835   -4.9685 H   0  0  0  0  0  0  0  0  0  0  0  0
   -7.9056    7.7568   -3.8484 H   0  0  0  0  0  0  0  0  0  0  0  0
  1  2  1  0
  1  3  1  0
  4  3  1  0
  5  4  1  0
  5  6  1  0
  7  6  1  0
  6  8  1  0
  7  9  1  0
  9 10  3  0
  2 11  1  0
  2 12  1  0
 11 13  1  0
 12 13  1  0
  2 14  1  0
  3 15  1  0
  3 16  1  0
  4 17  1  0
  4 18  1  0
  5 19  1  0
  5 20  1  0
  6 21  1  0
  7 22  1  0
  7 23  1  0
  8 24  1  0
  8 25  1  0
  8 26  1  0
 11 27  1  0
 11 28  1  0
 12 29  1  0
 12 30  1  0
M  CHG  1   6   1
M  END
$$$$

     RDKit          3D

 10  9  0  0  0  0  0  0  0  0999 V2000
   -4.7430    8.9200   -3.6980 O   0  0  0  0  0  0  0  0  0  0  0  0
   -3.7837    8.1327   -2.9481 C   0  0  0  0  0  0  0  0  0  0  0  0
   -5.8490    8.1420   -4.1630 C   0  0  0  0  0  0  0  0  0  0  0  0
   -4.4002    7.5548   -1.7748 C   0  0  0  0  0  0  0  0  0  0  0  0
   -4.8476    7.0733   -0.8498 N   0  0  0  0  0  0  0  0  0  0  0  0
   -3.4002    7.3251   -3.5890 H   0  0  0  0  0  0  0  0  0  0  0  0
   -2.9616    8.7896   -2.6276 H   0  0  0  0  0  0  0  0  0  0  0  0
   -6.4265    7.7744   -3.3020 H   0  0  0  0  0  0  0  0  0  0  0  0
   -6.4949    8.7659   -4.7982 H   0  0  0  0  0  0  0  0  0  0  0  0
   -5.4764    7.2872   -4.7465 H   0  0  0  0  0  0  0  0  0  0  0  0
  1  2  1  0
  1  3  1  0
  2  4  1  0
  4  5  3  0
  2  6  1  0
  2  7  1  0
  3  8  1  0
  3  9  1  0
  3 10  1  0
M  END
$$$$

     RDKit          3D

 26 28  0  0  0  0  0  0  0  0999 V2000
    0.7115   10.3898   -8.2870 N   0  0  0  0  0  0  0  0  0  0  0  0
    0.5200    9.2660   -7.3910 C   0  0  0  0  0  0  0  0  0  0  0  0
    1.3872   11.5013   -7.9850 C   0  0  0  0  0  0  0  0  0  0  0  0
    0.2374   10.4627   -9.5336 N   0  0  0  0  0  0  0  0  0  0  0  0
    1.3171   12.2726   -9.0924 C   0  0  0  0  0  0  0  0  0  0  0  0
    0.6061   11.6168  -10.0332 N   0  0  0  0  0  0  0  0  0  0  0  0
    0.2430    9.2710   -5.9990 C   0  0  0  0  0  0  0  0  0  0  0  0
    0.5800    8.0950   -8.0410 N   0  0  0  0  0  0  0  0  0  0  0  0
    0.0730    8.0370   -5.3300 C   0  0  0  0  0  0  0  0  0  0  0  0
    0.1340   10.5440   -5.1780 C   0  0  0  0  0  0  0  0  0  0  0  0
    0.4320    6.9230   -7.4130 C   0  0  0  0  0  0  0  0  0  0  0  0
   -0.1967    7.9617   -3.9073 N   0  0  0  0  0  0  0  0  0  0  0  0
    0.1710    6.8500   -6.0490 C   0  0  0  0  0  0  0  0  0  0  0  0
   -1.3421    8.3274   -3.3264 C   0  0  0  0  0  0  0  0  0  0  0  0
    0.6647    7.5167   -2.9887 N   0  0  0  0  0  0  0  0  0  0  0  0
   -1.1631    8.0933   -2.0075 C   0  0  0  0  0  0  0  0  0  0  0  0
    0.0768    7.5952   -1.8201 N   0  0  0  0  0  0  0  0  0  0  0  0
    1.8927   11.7383   -7.0372 H   0  0  0  0  0  0  0  0  0  0  0  0
    1.7657   13.2704   -9.2078 H   0  0  0  0  0  0  0  0  0  0  0  0
   -0.9123   10.8832   -5.1645 H   0  0  0  0  0  0  0  0  0  0  0  0
    0.4687   10.3464   -4.1489 H   0  0  0  0  0  0  0  0  0  0  0  0
    0.7667   11.3245   -5.6259 H   0  0  0  0  0  0  0  0  0  0  0  0
    0.5192    5.9915   -7.9915 H   0  0  0  0  0  0  0  0  0  0  0  0
    0.0451    5.8774   -5.5507 H   0  0  0  0  0  0  0  0  0  0  0  0
   -2.2396    8.7327   -3.8167 H   0  0  0  0  0  0  0  0  0  0  0  0
   -1.9057    8.2782   -1.2173 H   0  0  0  0  0  0  0  0  0  0  0  0
  1  2  1  0
  1  3  1  0
  1  4  1  0
  3  5  2  0
  4  6  2  0
  6  5  1  0
  2  7  2  0
  2  8  1  0
  9  7  1  0
  7 10  1  0
  8 11  2  0
 12  9  1  0
 13  9  2  0
 11 13  1  0
 12 14  1  0
 12 15  1  0
 14 16  2  0
 15 17  2  0
 17 16  1  0
  3 18  1  0
  5 19  1  0
 10 20  1  0
 10 21  1  0
 10 22  1  0
 11 23  1  0
 13 24  1  0
 14 25  1  0
 16 26  1  0
M  END
$$$$

     RDKit          3D

 21 22  0  0  0  0  0  0  0  0999 V2000
    0.7115   10.3898   -8.2870 N   0  0  0  0  0  0  0  0  0  0  0  0
    0.5200    9.2660   -7.3910 C   0  0  0  0  0  0  0  0  0  0  0  0
   -0.2718   10.9103   -9.1708 O   0  0  0  0  0  0  0  0  0  0  0  0
    1.8695   11.1140   -8.4119 C   0  0  0  0  0  0  0  0  0  0  0  0
    0.2647   12.0397   -9.7344 C   0  0  0  0  0  0  0  0  0  0  0  0
    2.9432   10.8885   -7.8602 O   0  0  0  0  0  0  0  0  0  0  0  0
    1.5526   12.1473   -9.2940 N   0  0  0  0  0  0  0  0  0  0  0  0
   -0.3471   12.7723  -10.4834 O   0  0  0  0  0  0  0  0  0  0  0  0
    0.5800    8.0950   -8.0410 N   0  0  0  0  0  0  0  0  0  0  0  0
    0.2430    9.2710   -5.9990 C   0  0  0  0  0  0  0  0  0  0  0  0
    0.4320    6.9230   -7.4130 C   0  0  0  0  0  0  0  0  0  0  0  0
    0.0730    8.0370   -5.3300 C   0  0  0  0  0  0  0  0  0  0  0  0
    0.1340   10.5440   -5.1780 C   0  0  0  0  0  0  0  0  0  0  0  0
    0.1710    6.8500   -6.0490 C   0  0  0  0  0  0  0  0  0  0  0  0
    2.2044   12.8932   -9.5761 H   0  0  0  0  0  0  0  0  0  0  0  0
    0.5192    5.9915   -7.9915 H   0  0  0  0  0  0  0  0  0  0  0  0
   -0.1350    8.0157   -4.2501 H   0  0  0  0  0  0  0  0  0  0  0  0
    1.1277   10.8195   -4.7950 H   0  0  0  0  0  0  0  0  0  0  0  0
   -0.2533   11.3563   -5.8106 H   0  0  0  0  0  0  0  0  0  0  0  0
   -0.5513   10.3782   -4.3337 H   0  0  0  0  0  0  0  0  0  0  0  0
    0.0451    5.8774   -5.5507 H   0  0  0  0  0  0  0  0  0  0  0  0
  1  2  1  0
  3  1  1  0
  1  4  1  0
  5  3  1  0
  4  6  2  0
  7  4  1  0
  5  8  2  0
  7  5  1  0
  2  9  2  0
  2 10  1  0
  9 11  1  0
 12 10  2  0
 10 13  1  0
 11 14  2  0
 14 12  1  0
  7 15  1  0
 11 16  1  0
 12 17  1  0
 13 18  1  0
 13 19  1  0
 13 20  1  0
 14 21  1  0
M  END
$$$$

     RDKit          3D

 32 34  0  0  0  0  0  0  0  0999 V2000
    0.7115   10.3898   -8.2870 N   0  0  0  0  0  0  0  0  0  0  0  0
    0.5200    9.2660   -7.3910 C   0  0  0  0  0  0  0  0  0  0  0  0
   -0.1942   10.7261   -9.3704 C   0  0  0  0  0  0  0  0  0  0  0  0
    1.7302   11.2272   -8.2128 C   0  0  0  0  0  0  0  0  0  0  0  0
    0.2581   12.1220   -9.7414 C   0  0  0  0  0  0  0  0  0  0  0  0
    2.6888   11.0838   -7.4587 O   0  0  0  0  0  0  0  0  0  0  0  0
    1.5527   12.2042   -9.0988 N   0  0  0  0  0  0  0  0  0  0  0  0
    0.2430    9.2710   -5.9990 C   0  0  0  0  0  0  0  0  0  0  0  0
    0.5800    8.0950   -8.0410 N   0  0  0  0  0  0  0  0  0  0  0  0
    0.0730    8.0370   -5.3300 C   0  0  0  0  0  0  0  0  0  0  0  0
    0.1340   10.5440   -5.1780 C   0  0  0  0  0  0  0  0  0  0  0  0
    0.4320    6.9230   -7.4130 C   0  0  0  0  0  0  0  0  0  0  0  0
   -0.1967    7.9617   -3.9073 C   0  0  0  0  0  0  0  0  0  0  0  0
    0.1710    6.8500   -6.0490 C   0  0  0  0  0  0  0  0  0  0  0  0
    0.3278    6.6769   -3.1984 C   0  0  0  0  0  0  0  0  0  0  0  0
    0.8263    8.7099   -2.9949 C   0  0  0  0  0  0  0  0  0  0  0  0
    1.2804    7.4537   -2.4162 O   0  0  0  0  0  0  0  0  0  0  0  0
   -0.0803   10.0317  -10.2159 H   0  0  0  0  0  0  0  0  0  0  0  0
   -1.2570   10.6646   -9.0936 H   0  0  0  0  0  0  0  0  0  0  0  0
    0.3461   12.2362  -10.8320 H   0  0  0  0  0  0  0  0  0  0  0  0
   -0.4415   12.9110   -9.4283 H   0  0  0  0  0  0  0  0  0  0  0  0
    2.2526   12.9318   -9.3029 H   0  0  0  0  0  0  0  0  0  0  0  0
   -0.9123   10.8832   -5.1645 H   0  0  0  0  0  0  0  0  0  0  0  0
    0.4687   10.3464   -4.1489 H   0  0  0  0  0  0  0  0  0  0  0  0
    0.7667   11.3245   -5.6259 H   0  0  0  0  0  0  0  0  0  0  0  0
    0.5192    5.9915   -7.9915 H   0  0  0  0  0  0  0  0  0  0  0  0
   -1.2628    8.2274   -3.9598 H   0  0  0  0  0  0  0  0  0  0  0  0
    0.0451    5.8774   -5.5507 H   0  0  0  0  0  0  0  0  0  0  0  0
   -0.4320    6.1644   -2.5901 H   0  0  0  0  0  0  0  0  0  0  0  0
    0.6830    5.8289   -3.8022 H   0  0  0  0  0  0  0  0  0  0  0  0
    1.6063    9.2494   -3.5522 H   0  0  0  0  0  0  0  0  0  0  0  0
    0.4786    9.5191   -2.3360 H   0  0  0  0  0  0  0  0  0  0  0  0
  1  2  1  0
  1  3  1  0
  1  4  1  0
  3  5  1  0
  4  6  2  0
  4  7  1  0
  7  5  1  0
  2  8  2  0
  2  9  1  0
 10  8  1  0
  8 11  1  0
  9 12  2  0
 13 10  1  0
 14 10  2  0
 12 14  1  0
 13 15  1  0
 13 16  1  0
 15 17  1  0
 16 17  1  0
  3 18  1  0
  3 19  1  0
  5 20  1  0
  5 21  1  0
  7 22  1  0
 11 23  1  0
 11 24  1  0
 11 25  1  0
 12 26  1  0
 13 27  1  0
 14 28  1  0
 15 29  1  0
 15 30  1  0
 16 31  1  0
 16 32  1  0
M  END
$$$$

     RDKit          3D

 32 34  0  0  0  0  0  0  0  0999 V2000
    0.7115   10.3898   -8.2870 N   0  0  0  0  0  0  0  0  0  0  0  0
    0.5200    9.2660   -7.3910 C   0  0  0  0  0  0  0  0  0  0  0  0
   -0.2212   10.7575   -9.3369 C   0  0  0  0  0  0  0  0  0  0  0  0
    1.7547   11.1986   -8.2434 C   0  0  0  0  0  0  0  0  0  0  0  0
    0.2563   12.1429   -9.7157 C   0  0  0  0  0  0  0  0  0  0  0  0
    2.7343   11.0244   -7.5235 O   0  0  0  0  0  0  0  0  0  0  0  0
    1.5739   12.1857   -9.1175 N   0  0  0  0  0  0  0  0  0  0  0  0
    0.2430    9.2710   -5.9990 C   0  0  0  0  0  0  0  0  0  0  0  0
    0.5800    8.0950   -8.0410 N   0  0  0  0  0  0  0  0  0  0  0  0
    0.0730    8.0370   -5.3300 C   0  0  0  0  0  0  0  0  0  0  0  0
    0.1340   10.5440   -5.1780 C   0  0  0  0  0  0  0  0  0  0  0  0
    0.4320    6.9230   -7.4130 C   0  0  0  0  0  0  0  0  0  0  0  0
   -0.1967    7.9617   -3.9073 C   0  0  0  0  0  0  0  0  0  0  0  0
    0.1710    6.8500   -6.0490 C   0  0  0  0  0  0  0  0  0  0  0  0
   -0.3421    6.5201   -3.3337 C   0  0  0  0  0  0  0  0  0  0  0  0
    1.0609    8.0476   -2.9855 C   0  0  0  0  0  0  0  0  0  0  0  0
    0.8667    6.6768   -2.5357 O   0  0  0  0  0  0  0  0  0  0  0  0
   -0.1553   10.0656  -10.1895 H   0  0  0  0  0  0  0  0  0  0  0  0
   -1.2752   10.7232   -9.0239 H   0  0  0  0  0  0  0  0  0  0  0  0
    0.3100   12.2615  -10.8079 H   0  0  0  0  0  0  0  0  0  0  0  0
   -0.4102   12.9486   -9.3744 H   0  0  0  0  0  0  0  0  0  0  0  0
    2.2861   12.8952   -9.3416 H   0  0  0  0  0  0  0  0  0  0  0  0
    1.1277   10.8195   -4.7950 H   0  0  0  0  0  0  0  0  0  0  0  0
   -0.2533   11.3563   -5.8106 H   0  0  0  0  0  0  0  0  0  0  0  0
   -0.5513   10.3782   -4.3337 H   0  0  0  0  0  0  0  0  0  0  0  0
    0.5192    5.9915   -7.9915 H   0  0  0  0  0  0  0  0  0  0  0  0
   -1.0097    8.7025   -3.8867 H   0  0  0  0  0  0  0  0  0  0  0  0
    0.0451    5.8774   -5.5507 H   0  0  0  0  0  0  0  0  0  0  0  0
   -1.2526    6.3709   -2.7348 H   0  0  0  0  0  0  0  0  0  0  0  0
   -0.4328    5.6671   -4.0223 H   0  0  0  0  0  0  0  0  0  0  0  0
    2.0021    8.2062   -3.5323 H   0  0  0  0  0  0  0  0  0  0  0  0
    1.1399    8.8578   -2.2456 H   0  0  0  0  0  0  0  0  0  0  0  0
  1  2  1  0
  1  3  1  0
  1  4  1  0
  3  5  1  0
  4  6  2  0
  4  7  1  0
  7  5  1  0
  2  8  2  0
  2  9  1  0
 10  8  1  0
  8 11  1  0
  9 12  2  0
 13 10  1  0
 14 10  2  0
 12 14  1  0
 13 15  1  0
 13 16  1  0
 15 17  1  0
 16 17  1  0
  3 18  1  0
  3 19  1  0
  5 20  1  0
  5 21  1  0
  7 22  1  0
 11 23  1  0
 11 24  1  0
 11 25  1  0
 12 26  1  0
 13 27  1  0
 14 28  1  0
 15 29  1  0
 15 30  1  0
 16 31  1  0
 16 32  1  0
M  END
$$$$

     RDKit          3D

 30 30  0  0  0  0  0  0  0  0999 V2000
    0.7986    7.9494   -2.8963 C   0  0  0  0  0  0  0  0  0  0  0  0
   -0.1701    7.9713   -3.9750 N   0  0  0  0  0  4  0  0  0  0  0  0
    1.6773    9.0952   -2.9731 C   0  0  0  0  0  0  0  0  0  0  0  0
    2.3809    9.9853   -2.9903 N   0  0  0  0  0  0  0  0  0  0  0  0
   -1.4220    7.4430   -3.4690 C   0  0  0  0  0  0  0  0  0  0  0  0
    0.3048    7.1801   -5.1166 C   0  0  0  0  0  0  0  0  0  0  0  0
   -2.4260    8.5890   -3.4360 C   0  0  0  0  0  0  0  0  0  0  0  0
   -3.7950    8.1420   -2.9570 C   0  0  0  0  0  0  0  0  0  0  0  0
   -4.7543    8.9293   -3.7069 O   0  0  0  0  0  0  0  0  0  0  0  0
   -6.0324    8.6248   -3.0934 C   0  0  0  0  0  0  0  0  0  0  0  0
   -6.8255    9.8569   -2.5631 C   0  0  0  0  0  0  0  0  0  0  0  0
   -7.2266    8.4639   -4.0867 C   0  0  0  0  0  0  0  0  0  0  0  0
   -7.8755    9.6522   -3.5521 O   0  0  0  0  0  0  0  0  0  0  0  0
    0.2669    7.9665   -1.9335 H   0  0  0  0  0  0  0  0  0  0  0  0
    1.4031    7.0345   -2.9832 H   0  0  0  0  0  0  0  0  0  0  0  0
   -0.3048    8.9371   -4.3065 H   0  0  0  0  0  0  0  0  0  0  0  0
   -1.7867    6.6438   -4.1310 H   0  0  0  0  0  0  0  0  0  0  0  0
   -1.2845    7.0208   -2.4626 H   0  0  0  0  0  0  0  0  0  0  0  0
    0.4610    6.1380   -4.8009 H   0  0  0  0  0  0  0  0  0  0  0  0
   -0.4447    7.2110   -5.9212 H   0  0  0  0  0  0  0  0  0  0  0  0
    1.2538    7.5983   -5.4832 H   0  0  0  0  0  0  0  0  0  0  0  0
   -2.0507    9.3686   -2.7567 H   0  0  0  0  0  0  0  0  0  0  0  0
   -2.5363    8.9693   -4.4622 H   0  0  0  0  0  0  0  0  0  0  0  0
   -3.9395    7.0701   -3.1575 H   0  0  0  0  0  0  0  0  0  0  0  0
   -3.9115    8.2882   -1.8730 H   0  0  0  0  0  0  0  0  0  0  0  0
   -5.6773    7.8122   -2.4426 H   0  0  0  0  0  0  0  0  0  0  0  0
   -7.1685    9.7495   -1.5234 H   0  0  0  0  0  0  0  0  0  0  0  0
   -6.3276   10.8352   -2.4926 H   0  0  0  0  0  0  0  0  0  0  0  0
   -6.9390    8.5532   -5.1447 H   0  0  0  0  0  0  0  0  0  0  0  0
   -7.7782    7.5130   -4.1262 H   0  0  0  0  0  0  0  0  0  0  0  0
  1  2  1  0
  1  3  1  0
  3  4  3  0
  5  2  1  0
  2  6  1  0
  5  7  1  0
  7  8  1  0
  9  8  1  0
  9 10  1  0
 10 11  1  0
 10 12  1  0
 11 13  1  0
 12 13  1  0
  1 14  1  0
  1 15  1  0
  2 16  1  0
  5 17  1  0
  5 18  1  0
  6 19  1  0
  6 20  1  0
  6 21  1  0
  7 22  1  0
  7 23  1  0
  8 24  1  0
  8 25  1  0
 10 26  1  0
 11 27  1  0
 11 28  1  0
 12 29  1  0
 12 30  1  0
M  CHG  1   2   1
M  END
$$$$

     RDKit          3D

 27 29  0  0  0  0  0  0  0  0999 V2000
    0.7200   10.4400   -8.3270 C   0  0  0  0  0  0  0  0  0  0  0  0
    0.5285    9.3162   -7.4310 N   0  0  0  0  0  0  0  0  0  0  0  0
    1.6520   11.8460   -7.9610 S   0  0  0  0  0  3  0  0  0  0  0  0
    2.5100   12.0090   -6.4990 C   0  0  0  0  0  0  0  0  0  0  0  0
    0.6010   12.9330   -7.9940 O   0  0  0  0  0  0  0  0  0  0  0  0
    3.4150   13.0050   -6.3620 N   0  0  0  0  0  0  0  0  0  0  0  0
    2.3160   11.2310   -5.4170 N   0  0  0  0  0  0  0  0  0  0  0  0
    3.8770   12.8740   -5.1010 C   0  0  0  0  0  0  0  0  0  0  0  0
    3.1650   11.7250   -4.4860 C   0  0  0  0  0  0  0  0  0  0  0  0
    4.8200   13.5610   -4.3510 C   0  0  0  0  0  0  0  0  0  0  0  0
    3.4510   11.3720   -3.1790 C   0  0  0  0  0  0  0  0  0  0  0  0
    5.0840   13.1730   -3.0410 C   0  0  0  0  0  0  0  0  0  0  0  0
    4.4040   12.1030   -2.4750 C   0  0  0  0  0  0  0  0  0  0  0  0
    0.7712    8.0406   -7.7427 C   0  0  0  0  0  0  0  0  0  0  0  0
    0.0840    9.4075   -6.1748 N   0  0  0  0  0  0  0  0  0  0  0  0
    0.4608    7.3372   -6.6312 C   0  0  0  0  0  0  0  0  0  0  0  0
    0.0403    8.1953   -5.6786 N   0  0  0  0  0  0  0  0  0  0  0  0
    1.1710   10.0170   -9.2368 H   0  0  0  0  0  0  0  0  0  0  0  0
   -0.2935   10.8675   -8.3306 H   0  0  0  0  0  0  0  0  0  0  0  0
    0.7872   13.5493   -8.7460 H   0  0  0  0  0  0  0  0  0  0  0  0
    1.6666   10.4374   -5.3198 H   0  0  0  0  0  0  0  0  0  0  0  0
    5.3592   14.4125   -4.7917 H   0  0  0  0  0  0  0  0  0  0  0  0
    2.9330   10.5262   -2.7032 H   0  0  0  0  0  0  0  0  0  0  0  0
    5.8358   13.7172   -2.4505 H   0  0  0  0  0  0  0  0  0  0  0  0
    4.6259   11.8232   -1.4346 H   0  0  0  0  0  0  0  0  0  0  0  0
    1.1440    7.6465   -8.6996 H   0  0  0  0  0  0  0  0  0  0  0  0
    0.5383    6.2455   -6.5214 H   0  0  0  0  0  0  0  0  0  0  0  0
  1  2  1  0
  3  1  1  0
  4  3  1  0
  3  5  1  1
  6  4  2  0
  4  7  1  0
  8  6  1  0
  9  7  1  0
  9  8  2  0
  8 10  1  0
 11  9  1  0
 10 12  2  0
 11 13  2  0
 12 13  1  0
  2 14  1  0
  2 15  1  0
 14 16  2  0
 15 17  2  0
 17 16  1  0
  1 18  1  0
  1 19  1  0
  5 20  1  0
  7 21  1  0
 10 22  1  0
 11 23  1  0
 12 24  1  0
 13 25  1  0
 14 26  1  0
 16 27  1  0
M  CHG  1   3   1
M  END
$$$$

     RDKit          3D

 32 32  0  0  0  0  0  0  0  0999 V2000
   -1.4220    7.4430   -3.4690 C   0  0  0  0  0  0  0  0  0  0  0  0
   -0.1701    7.9713   -3.9750 N   0  0  0  0  0  0  0  0  0  0  0  0
   -2.4260    8.5890   -3.4360 C   0  0  0  0  0  0  0  0  0  0  0  0
   -3.7950    8.1420   -2.9570 C   0  0  0  0  0  0  0  0  0  0  0  0
   -4.7543    8.9293   -3.7069 N   0  0  0  0  0  4  0  0  0  0  0  0
   -6.0178    8.2178   -3.7115 C   0  0  0  0  0  0  0  0  0  0  0  0
   -4.9104   10.2626   -3.1130 C   0  0  0  0  0  0  0  0  0  0  0  0
   -6.2535    7.5836   -2.4336 C   0  0  0  0  0  0  0  0  0  0  0  0
   -6.4827    7.0796   -1.4431 N   0  0  0  0  0  0  0  0  0  0  0  0
    0.6296    8.7466   -3.2814 C   0  0  0  0  0  0  0  0  0  0  0  0
    0.3430    7.7021   -5.3106 C   0  0  0  0  0  0  0  0  0  0  0  0
    0.4436    9.2082   -2.0491 N   0  0  0  0  0  0  0  0  0  0  0  0
    1.7043    9.0403   -3.9806 N   0  0  0  0  0  0  0  0  0  0  0  0
    1.6394    8.5086   -5.3402 C   0  0  0  0  0  0  0  0  0  0  0  0
   -1.7867    6.6438   -4.1310 H   0  0  0  0  0  0  0  0  0  0  0  0
   -1.2845    7.0208   -2.4626 H   0  0  0  0  0  0  0  0  0  0  0  0
   -2.0507    9.3686   -2.7567 H   0  0  0  0  0  0  0  0  0  0  0  0
   -2.5363    8.9693   -4.4622 H   0  0  0  0  0  0  0  0  0  0  0  0
   -3.9395    7.0701   -3.1575 H   0  0  0  0  0  0  0  0  0  0  0  0
   -3.9115    8.2882   -1.8730 H   0  0  0  0  0  0  0  0  0  0  0  0
   -4.4220    9.0611   -4.6728 H   0  0  0  0  0  0  0  0  0  0  0  0
   -6.8315    8.9288   -3.9170 H   0  0  0  0  0  0  0  0  0  0  0  0
   -5.9827    7.4413   -4.4898 H   0  0  0  0  0  0  0  0  0  0  0  0
   -5.5169   10.8925   -3.7804 H   0  0  0  0  0  0  0  0  0  0  0  0
   -5.4113   10.1733   -2.1378 H   0  0  0  0  0  0  0  0  0  0  0  0
   -3.9200   10.7211   -2.9759 H   0  0  0  0  0  0  0  0  0  0  0  0
    0.5399    6.6291   -5.4512 H   0  0  0  0  0  0  0  0  0  0  0  0
   -0.3597    7.9752   -6.1116 H   0  0  0  0  0  0  0  0  0  0  0  0
    1.1538    9.8137   -1.6133 H   0  0  0  0  0  0  0  0  0  0  0  0
    2.4992    9.5822   -3.6126 H   0  0  0  0  0  0  0  0  0  0  0  0
    2.5044    7.8651   -5.5584 H   0  0  0  0  0  0  0  0  0  0  0  0
    1.6582    9.2852   -6.1191 H   0  0  0  0  0  0  0  0  0  0  0  0
  1  2  1  0
  1  3  1  0
  3  4  1  0
  4  5  1  0
  6  5  1  0
  5  7  1  0
  6  8  1  0
  8  9  3  0
  2 10  1  0
  2 11  1  0
 10 12  2  3
 10 13  1  0
 11 14  1  0
 14 13  1  0
  1 15  1  0
  1 16  1  0
  3 17  1  0
  3 18  1  0
  4 19  1  0
  4 20  1  0
  5 21  1  0
  6 22  1  0
  6 23  1  0
  7 24  1  0
  7 25  1  0
  7 26  1  0
 11 27  1  0
 11 28  1  0
 12 29  1  0
 13 30  1  0
 14 31  1  0
 14 32  1  0
M  CHG  1   5   1
M  END
$$$$

     RDKit          3D

 32 34  0  0  0  0  0  0  0  0999 V2000
   -0.1967    7.9617   -3.9073 C   0  0  0  0  0  0  0  0  0  0  0  0
    0.0730    8.0370   -5.3300 C   0  0  0  0  0  0  0  0  0  0  0  0
   -0.1681    6.5268   -3.3004 C   0  0  0  0  0  0  0  0  0  0  0  0
    1.0334    8.2230   -2.9814 C   0  0  0  0  0  0  0  0  0  0  0  0
    1.0058    6.8495   -2.5002 O   0  0  0  0  0  0  0  0  0  0  0  0
    0.2430    9.2710   -5.9990 C   0  0  0  0  0  0  0  0  0  0  0  0
    0.1710    6.8500   -6.0490 C   0  0  0  0  0  0  0  0  0  0  0  0
    0.5200    9.2660   -7.3910 C   0  0  0  0  0  0  0  0  0  0  0  0
    0.1340   10.5440   -5.1780 C   0  0  0  0  0  0  0  0  0  0  0  0
    0.4320    6.9230   -7.4130 C   0  0  0  0  0  0  0  0  0  0  0  0
    0.7115   10.3898   -8.2870 N   0  0  0  0  0  0  0  0  0  0  0  0
    0.5800    8.0950   -8.0410 N   0  0  0  0  0  0  0  0  0  0  0  0
   -0.3378   10.9522   -9.1176 C   0  0  0  0  0  0  0  0  0  0  0  0
    1.8609   11.0215   -8.4428 C   0  0  0  0  0  0  0  0  0  0  0  0
    0.2756   12.2628   -9.5611 C   0  0  0  0  0  0  0  0  0  0  0  0
    2.9217   10.6594   -7.9413 O   0  0  0  0  0  0  0  0  0  0  0  0
    1.6745   12.0678   -9.2439 N   0  0  0  0  0  0  0  0  0  0  0  0
   -1.0948    8.5969   -3.9084 H   0  0  0  0  0  0  0  0  0  0  0  0
   -1.0581    6.2802   -2.7027 H   0  0  0  0  0  0  0  0  0  0  0  0
   -0.1476    5.6535   -3.9690 H   0  0  0  0  0  0  0  0  0  0  0  0
    1.9522    8.4838   -3.5271 H   0  0  0  0  0  0  0  0  0  0  0  0
    1.0062    9.0535   -2.2606 H   0  0  0  0  0  0  0  0  0  0  0  0
    0.0451    5.8774   -5.5507 H   0  0  0  0  0  0  0  0  0  0  0  0
    1.1277   10.8195   -4.7950 H   0  0  0  0  0  0  0  0  0  0  0  0
   -0.2533   11.3563   -5.8106 H   0  0  0  0  0  0  0  0  0  0  0  0
   -0.5513   10.3782   -4.3337 H   0  0  0  0  0  0  0  0  0  0  0  0
    0.5192    5.9915   -7.9915 H   0  0  0  0  0  0  0  0  0  0  0  0
   -0.5570   10.3027   -9.9780 H   0  0  0  0  0  0  0  0  0  0  0  0
   -1.2998   11.0680   -8.5968 H   0  0  0  0  0  0  0  0  0  0  0  0
    0.1301   12.4268  -10.6391 H   0  0  0  0  0  0  0  0  0  0  0  0
   -0.1686   13.1448   -9.0767 H   0  0  0  0  0  0  0  0  0  0  0  0
    2.4346   12.6671   -9.5959 H   0  0  0  0  0  0  0  0  0  0  0  0
  1  2  1  0
  1  3  1  0
  1  4  1  0
  3  5  1  0
  4  5  1  0
  2  6  2  0
  7  2  1  0
  8  6  1  0
  6  9  1  0
 10  7  2  0
 11  8  1  0
  8 12  2  0
 12 10  1  0
 11 13  1  0
 11 14  1  0
 13 15  1  0
 14 16  2  0
 14 17  1  0
 17 15  1  0
  1 18  1  0
  3 19  1  0
  3 20  1  0
  4 21  1  0
  4 22  1  0
  7 23  1  0
  9 24  1  0
  9 25  1  0
  9 26  1  0
 10 27  1  0
 13 28  1  0
 13 29  1  0
 15 30  1  0
 15 31  1  0
 17 32  1  0
M  END
$$$$

     RDKit          3D

 27 29  0  0  0  0  0  0  0  0999 V2000
    0.7200   10.4400   -8.3270 C   0  0  0  0  0  0  0  0  0  0  0  0
    0.5285    9.3162   -7.4310 N   0  0  0  0  0  0  0  0  0  0  0  0
    1.6520   11.8460   -7.9610 S   0  0  0  0  0  3  0  0  0  0  0  0
    2.5100   12.0090   -6.4990 C   0  0  0  0  0  0  0  0  0  0  0  0
    0.6010   12.9330   -7.9940 O   0  0  0  0  0  0  0  0  0  0  0  0
    3.4150   13.0050   -6.3620 N   0  0  0  0  0  0  0  0  0  0  0  0
    2.3160   11.2310   -5.4170 N   0  0  0  0  0  0  0  0  0  0  0  0
    3.8770   12.8740   -5.1010 C   0  0  0  0  0  0  0  0  0  0  0  0
    3.1650   11.7250   -4.4860 C   0  0  0  0  0  0  0  0  0  0  0  0
    4.8200   13.5610   -4.3510 C   0  0  0  0  0  0  0  0  0  0  0  0
    3.4510   11.3720   -3.1790 C   0  0  0  0  0  0  0  0  0  0  0  0
    5.0840   13.1730   -3.0410 C   0  0  0  0  0  0  0  0  0  0  0  0
    4.4040   12.1030   -2.4750 C   0  0  0  0  0  0  0  0  0  0  0  0
    0.9121    8.0626   -7.6850 C   0  0  0  0  0  0  0  0  0  0  0  0
   -0.0569    9.3855   -6.2325 N   0  0  0  0  0  0  0  0  0  0  0  0
    0.5434    7.3501   -6.5975 C   0  0  0  0  0  0  0  0  0  0  0  0
   -0.0508    8.1811   -5.7159 N   0  0  0  0  0  0  0  0  0  0  0  0
    1.1710   10.0170   -9.2368 H   0  0  0  0  0  0  0  0  0  0  0  0
   -0.2935   10.8675   -8.3306 H   0  0  0  0  0  0  0  0  0  0  0  0
   -0.1403   12.6939   -7.3829 H   0  0  0  0  0  0  0  0  0  0  0  0
    1.6666   10.4374   -5.3198 H   0  0  0  0  0  0  0  0  0  0  0  0
    5.3592   14.4125   -4.7917 H   0  0  0  0  0  0  0  0  0  0  0  0
    2.9330   10.5262   -2.7032 H   0  0  0  0  0  0  0  0  0  0  0  0
    5.8358   13.7172   -2.4505 H   0  0  0  0  0  0  0  0  0  0  0  0
    4.6259   11.8232   -1.4346 H   0  0  0  0  0  0  0  0  0  0  0  0
    1.4197    7.6895   -8.5868 H   0  0  0  0  0  0  0  0  0  0  0  0
    0.7015    6.2709   -6.4545 H   0  0  0  0  0  0  0  0  0  0  0  0
  1  2  1  0
  3  1  1  0
  4  3  1  0
  3  5  1  1
  6  4  2  0
  4  7  1  0
  8  6  1  0
  9  7  1  0
  9  8  2  0
  8 10  1  0
 11  9  1  0
 10 12  2  0
 11 13  2  0
 12 13  1  0
  2 14  1  0
  2 15  1  0
 14 16  2  0
 15 17  2  0
 17 16  1  0
  1 18  1  0
  1 19  1  0
  5 20  1  0
  7 21  1  0
 10 22  1  0
 11 23  1  0
 12 24  1  0
 13 25  1  0
 14 26  1  0
 16 27  1  0
M  CHG  1   3   1
M  END
$$$$

     RDKit          3D

 36 37  0  0  0  0  0  0  0  0999 V2000
   -4.7543    8.9293   -3.7069 N   0  0  0  0  0  4  0  0  0  0  0  0
   -6.0271    8.2351   -3.6813 C   0  0  0  0  0  0  0  0  0  0  0  0
   -3.7950    8.1420   -2.9570 C   0  0  0  0  0  0  0  0  0  0  0  0
   -4.8841   10.2746   -3.1341 C   0  0  0  0  0  0  0  0  0  0  0  0
   -2.4260    8.5890   -3.4360 C   0  0  0  0  0  0  0  0  0  0  0  0
   -1.4220    7.4430   -3.4690 C   0  0  0  0  0  0  0  0  0  0  0  0
   -0.1701    7.9713   -3.9750 N   0  0  0  0  0  0  0  0  0  0  0  0
    0.3866    7.5825   -5.0977 C   0  0  0  0  0  0  0  0  0  0  0  0
    0.6126    8.9935   -3.2954 C   0  0  0  0  0  0  0  0  0  0  0  0
   -0.0471    6.6473   -5.9366 N   0  0  0  0  0  0  0  0  0  0  0  0
    1.4933    8.2581   -5.3193 N   0  0  0  0  0  0  0  0  0  0  0  0
    1.8228    9.1539   -4.2128 C   0  0  0  0  0  0  0  0  0  0  0  0
   -7.2507    9.1054   -3.2647 C   0  0  0  0  0  0  0  0  0  0  0  0
   -6.7546    8.1270   -5.0589 C   0  0  0  0  0  0  0  0  0  0  0  0
   -7.8366    8.9821   -4.5928 O   0  0  0  0  0  0  0  0  0  0  0  0
   -4.4341    9.0400   -4.6795 H   0  0  0  0  0  0  0  0  0  0  0  0
   -5.6891    7.3587   -3.1089 H   0  0  0  0  0  0  0  0  0  0  0  0
   -3.9039    8.3313   -1.8789 H   0  0  0  0  0  0  0  0  0  0  0  0
   -3.9460    7.0638   -3.1143 H   0  0  0  0  0  0  0  0  0  0  0  0
   -5.5075   10.8956   -3.7942 H   0  0  0  0  0  0  0  0  0  0  0  0
   -5.3547   10.2070   -2.1422 H   0  0  0  0  0  0  0  0  0  0  0  0
   -3.8872   10.7294   -3.0368 H   0  0  0  0  0  0  0  0  0  0  0  0
   -2.5239    9.0028   -4.4505 H   0  0  0  0  0  0  0  0  0  0  0  0
   -2.0519    9.3437   -2.7286 H   0  0  0  0  0  0  0  0  0  0  0  0
   -1.2773    7.0418   -2.4550 H   0  0  0  0  0  0  0  0  0  0  0  0
   -1.7861    6.6289   -4.1129 H   0  0  0  0  0  0  0  0  0  0  0  0
    0.0496    9.9349   -3.2131 H   0  0  0  0  0  0  0  0  0  0  0  0
    0.8798    8.7244   -2.2628 H   0  0  0  0  0  0  0  0  0  0  0  0
    0.4867    6.4347   -6.7914 H   0  0  0  0  0  0  0  0  0  0  0  0
    2.0615    8.1664   -6.1735 H   0  0  0  0  0  0  0  0  0  0  0  0
    1.9262   10.1931   -4.5583 H   0  0  0  0  0  0  0  0  0  0  0  0
    2.7804    8.9190   -3.7251 H   0  0  0  0  0  0  0  0  0  0  0  0
   -7.8620    8.6582   -2.4670 H   0  0  0  0  0  0  0  0  0  0  0  0
   -7.0865   10.1038   -2.8330 H   0  0  0  0  0  0  0  0  0  0  0  0
   -6.1830    8.5517   -5.8973 H   0  0  0  0  0  0  0  0  0  0  0  0
   -6.9849    7.1360   -5.4772 H   0  0  0  0  0  0  0  0  0  0  0  0
  1  2  1  0
  3  1  1  0
  1  4  1  0
  5  3  1  0
  6  5  1  0
  6  7  1  0
  7  8  1  0
  7  9  1  0
  8 10  2  3
  8 11  1  0
  9 12  1  0
 12 11  1  0
  2 13  1  0
  2 14  1  0
 13 15  1  0
 14 15  1  0
  1 16  1  0
  2 17  1  0
  3 18  1  0
  3 19  1  0
  4 20  1  0
  4 21  1  0
  4 22  1  0
  5 23  1  0
  5 24  1  0
  6 25  1  0
  6 26  1  0
  9 27  1  0
  9 28  1  0
 10 29  1  0
 11 30  1  0
 12 31  1  0
 12 32  1  0
 13 33  1  0
 13 34  1  0
 14 35  1  0
 14 36  1  0
M  CHG  1   1   1
M  END
$$$$

     RDKit          3D

 36 37  0  0  0  0  0  0  0  0999 V2000
   -4.7543    8.9293   -3.7069 N   0  0  0  0  0  4  0  0  0  0  0  0
   -6.0862    8.4928   -3.3351 C   0  0  0  0  0  0  0  0  0  0  0  0
   -3.7950    8.1420   -2.9570 C   0  0  0  0  0  0  0  0  0  0  0  0
   -4.5805   10.3607   -3.4321 C   0  0  0  0  0  0  0  0  0  0  0  0
   -2.4260    8.5890   -3.4360 C   0  0  0  0  0  0  0  0  0  0  0  0
   -1.4220    7.4430   -3.4690 C   0  0  0  0  0  0  0  0  0  0  0  0
   -0.1701    7.9713   -3.9750 N   0  0  0  0  0  0  0  0  0  0  0  0
    0.4300    7.5232   -5.0524 C   0  0  0  0  0  0  0  0  0  0  0  0
    0.5644    9.0593   -3.3458 C   0  0  0  0  0  0  0  0  0  0  0  0
    0.0466    6.5211   -5.8366 N   0  0  0  0  0  0  0  0  0  0  0  0
    1.5244    8.2135   -5.2889 N   0  0  0  0  0  0  0  0  0  0  0  0
    1.7968    9.1916   -4.2379 C   0  0  0  0  0  0  0  0  0  0  0  0
   -7.0440    9.6217   -2.8486 C   0  0  0  0  0  0  0  0  0  0  0  0
   -7.0935    8.3453   -4.5193 C   0  0  0  0  0  0  0  0  0  0  0  0
   -7.9067    9.4393   -4.0083 O   0  0  0  0  0  0  0  0  0  0  0  0
   -4.6088    8.7914   -4.7172 H   0  0  0  0  0  0  0  0  0  0  0  0
   -5.7773    7.6501   -2.6993 H   0  0  0  0  0  0  0  0  0  0  0  0
   -3.9039    8.3313   -1.8789 H   0  0  0  0  0  0  0  0  0  0  0  0
   -3.9460    7.0638   -3.1143 H   0  0  0  0  0  0  0  0  0  0  0  0
   -4.3452   10.8879   -4.3684 H   0  0  0  0  0  0  0  0  0  0  0  0
   -5.5092   10.7677   -3.0056 H   0  0  0  0  0  0  0  0  0  0  0  0
   -3.7568   10.4993   -2.7163 H   0  0  0  0  0  0  0  0  0  0  0  0
   -2.5239    9.0028   -4.4505 H   0  0  0  0  0  0  0  0  0  0  0  0
   -2.0519    9.3437   -2.7286 H   0  0  0  0  0  0  0  0  0  0  0  0
   -1.2773    7.0418   -2.4550 H   0  0  0  0  0  0  0  0  0  0  0  0
   -1.7861    6.6289   -4.1129 H   0  0  0  0  0  0  0  0  0  0  0  0
   -0.0257    9.9877   -3.3441 H   0  0  0  0  0  0  0  0  0  0  0  0
    0.8079    8.8689   -2.2901 H   0  0  0  0  0  0  0  0  0  0  0  0
    0.6111    6.2661   -6.6596 H   0  0  0  0  0  0  0  0  0  0  0  0
    2.1201    8.0803   -6.1185 H   0  0  0  0  0  0  0  0  0  0  0  0
    1.8827   10.2074   -4.6511 H   0  0  0  0  0  0  0  0  0  0  0  0
    2.7453    9.0179   -3.7086 H   0  0  0  0  0  0  0  0  0  0  0  0
   -7.5372    9.4023   -1.8901 H   0  0  0  0  0  0  0  0  0  0  0  0
   -6.6390   10.6192   -2.6232 H   0  0  0  0  0  0  0  0  0  0  0  0
   -6.6507    8.5448   -5.5062 H   0  0  0  0  0  0  0  0  0  0  0  0
   -7.5584    7.3689   -4.7208 H   0  0  0  0  0  0  0  0  0  0  0  0
  1  2  1  0
  3  1  1  0
  1  4  1  0
  5  3  1  0
  6  5  1  0
  6  7  1  0
  7  8  1  0
  7  9  1  0
  8 10  2  3
  8 11  1  0
  9 12  1  0
 12 11  1  0
  2 13  1  0
  2 14  1  0
 13 15  1  0
 14 15  1  0
  1 16  1  0
  2 17  1  0
  3 18  1  0
  3 19  1  0
  4 20  1  0
  4 21  1  0
  4 22  1  0
  5 23  1  0
  5 24  1  0
  6 25  1  0
  6 26  1  0
  9 27  1  0
  9 28  1  0
 10 29  1  0
 11 30  1  0
 12 31  1  0
 12 32  1  0
 13 33  1  0
 13 34  1  0
 14 35  1  0
 14 36  1  0
M  CHG  1   1   1
M  END
$$$$

     RDKit          3D

 15 15  0  0  0  0  0  0  0  0999 V2000
   -0.1850    7.9650   -3.9690 O   0  0  0  0  0  0  0  0  0  0  0  0
   -1.4369    7.4367   -3.4630 C   0  0  0  0  0  0  0  0  0  0  0  0
    0.0847    8.0403   -5.3917 C   0  0  0  0  0  0  0  0  0  0  0  0
    1.2285    8.8856   -5.6526 C   0  0  0  0  0  0  0  0  0  0  0  0
    2.1277    9.5319   -5.9003 N   0  0  0  0  0  0  0  0  0  0  0  0
   -1.3122    6.5132   -2.2140 C   0  0  0  0  0  0  0  0  0  0  0  0
   -2.2219    8.3870   -2.5041 C   0  0  0  0  0  0  0  0  0  0  0  0
   -2.0213    7.4785   -1.3845 O   0  0  0  0  0  0  0  0  0  0  0  0
   -1.8360    7.0924   -4.4285 H   0  0  0  0  0  0  0  0  0  0  0  0
    0.2885    7.0293   -5.7743 H   0  0  0  0  0  0  0  0  0  0  0  0
   -0.7939    8.4699   -5.8953 H   0  0  0  0  0  0  0  0  0  0  0  0
   -1.8348    5.5511   -2.3199 H   0  0  0  0  0  0  0  0  0  0  0  0
   -0.3215    6.1514   -1.9016 H   0  0  0  0  0  0  0  0  0  0  0  0
   -1.7481    9.3704   -2.3681 H   0  0  0  0  0  0  0  0  0  0  0  0
   -3.2398    8.7089   -2.7690 H   0  0  0  0  0  0  0  0  0  0  0  0
  1  2  1  0
  1  3  1  0
  3  4  1  0
  4  5  3  0
  2  6  1  0
  2  7  1  0
  6  8  1  0
  7  8  1  0
  2  9  1  0
  3 10  1  0
  3 11  1  0
  6 12  1  0
  6 13  1  0
  7 14  1  0
  7 15  1  0
M  END
$$$$

     RDKit          3D

 17 17  0  0  0  0  0  0  0  0999 V2000
   -0.1850    7.9650   -3.9690 O   0  0  0  0  0  0  0  0  0  0  0  0
    0.0847    8.0403   -5.3917 C   0  0  0  0  0  0  0  0  0  0  0  0
   -1.4369    7.4367   -3.4630 C   0  0  0  0  0  0  0  0  0  0  0  0
   -1.1978    6.4401   -2.4429 C   0  0  0  0  0  0  0  0  0  0  0  0
   -1.0547    5.6611   -1.6304 N   0  0  0  0  0  0  0  0  0  0  0  0
    0.4763    9.2354   -5.9577 C   0  0  0  0  0  0  0  0  0  0  0  0
   -0.0502    6.9167   -6.1801 C   0  0  0  0  0  0  0  0  0  0  0  0
    0.7286    9.2864   -7.3148 C   0  0  0  0  0  0  0  0  0  0  0  0
    0.2113    7.0089   -7.5333 C   0  0  0  0  0  0  0  0  0  0  0  0
    0.5942    8.1823   -8.0793 N   0  0  0  0  0  4  0  0  0  0  0  0
    0.8397    8.2507   -9.3744 O   0  0  0  0  0  1  0  0  0  0  0  0
   -2.0278    8.2588   -3.0327 H   0  0  0  0  0  0  0  0  0  0  0  0
   -1.9835    6.9670   -4.2940 H   0  0  0  0  0  0  0  0  0  0  0  0
    0.5864   10.1364   -5.3364 H   0  0  0  0  0  0  0  0  0  0  0  0
   -0.3621    5.9594   -5.7369 H   0  0  0  0  0  0  0  0  0  0  0  0
    1.0415   10.2347   -7.7763 H   0  0  0  0  0  0  0  0  0  0  0  0
    0.1068    6.1187   -8.1710 H   0  0  0  0  0  0  0  0  0  0  0  0
  1  2  1  0
  1  3  1  0
  3  4  1  0
  4  5  3  0
  6  2  2  0
  2  7  1  0
  8  6  1  0
  9  7  2  0
  8 10  2  0
 10  9  1  0
 10 11  1  0
  3 12  1  0
  3 13  1  0
  6 14  1  0
  7 15  1  0
  8 16  1  0
  9 17  1  0
M  CHG  2  10   1  11  -1
M  END
$$$$

     RDKit          3D

 17 16  0  0  0  0  0  0  0  0999 V2000
   -3.7837    8.1327   -2.9481 C   0  0  0  0  0  0  0  0  0  0  0  0
   -4.7430    8.9200   -3.6980 O   0  0  0  0  0  0  0  0  0  0  0  0
   -4.1056    7.7553   -1.8594 O   0  0  0  0  0  0  0  0  0  0  0  0
   -2.4659    7.8517   -3.5904 C   0  0  0  0  0  0  0  0  0  0  0  0
   -1.6813    7.0577   -2.5650 C   0  0  0  0  0  0  0  0  0  0  0  0
   -1.2145    7.9058   -1.4043 C   0  0  0  0  0  0  0  0  0  0  0  0
   -5.8490    8.1420   -4.1630 C   0  0  0  0  0  0  0  0  0  0  0  0
   -2.6032    7.2637   -4.5099 H   0  0  0  0  0  0  0  0  0  0  0  0
   -1.9449    8.7766   -3.8785 H   0  0  0  0  0  0  0  0  0  0  0  0
   -2.3228    6.2526   -2.1771 H   0  0  0  0  0  0  0  0  0  0  0  0
   -0.7871    6.6589   -3.0663 H   0  0  0  0  0  0  0  0  0  0  0  0
   -2.0479    8.5281   -1.0464 H   0  0  0  0  0  0  0  0  0  0  0  0
   -0.8678    7.2532   -0.5894 H   0  0  0  0  0  0  0  0  0  0  0  0
   -0.3879    8.5532   -1.7324 H   0  0  0  0  0  0  0  0  0  0  0  0
   -6.7450    8.3904   -3.5752 H   0  0  0  0  0  0  0  0  0  0  0  0
   -6.0334    8.3646   -5.2243 H   0  0  0  0  0  0  0  0  0  0  0  0
   -5.6194    7.0725   -4.0472 H   0  0  0  0  0  0  0  0  0  0  0  0
  1  2  1  0
  1  3  2  0
  1  4  1  0
  4  5  1  0
  5  6  1  0
  2  7  1  0
  4  8  1  0
  4  9  1  0
  5 10  1  0
  5 11  1  0
  6 12  1  0
  6 13  1  0
  6 14  1  0
  7 15  1  0
  7 16  1  0
  7 17  1  0
M  END
$$$$

     RDKit          3D

 34 35  0  0  0  0  0  0  0  0999 V2000
   -0.1701    7.9713   -3.9750 N   0  0  0  0  0  4  0  0  0  0  0  0
    0.8773    7.6346   -3.0304 C   0  0  0  0  0  0  0  0  0  0  0  0
   -1.4220    7.4430   -3.4690 C   0  0  0  0  0  0  0  0  0  0  0  0
    0.1290    7.4192   -5.3018 C   0  0  0  0  0  0  0  0  0  0  0  0
   -2.4260    8.5890   -3.4360 C   0  0  0  0  0  0  0  0  0  0  0  0
   -3.7950    8.1420   -2.9570 C   0  0  0  0  0  0  0  0  0  0  0  0
   -4.7543    8.9293   -3.7069 O   0  0  0  0  0  0  0  0  0  0  0  0
   -5.4252    9.7346   -2.7049 C   0  0  0  0  0  0  0  0  0  0  0  0
   -6.9813    9.7382   -2.7877 C   0  0  0  0  0  0  0  0  0  0  0  0
   -5.6430    9.0361   -1.3253 C   0  0  0  0  0  0  0  0  0  0  0  0
   -7.0870    9.0489   -1.5086 O   0  0  0  0  0  0  0  0  0  0  0  0
    2.3047    8.1249   -3.4181 C   0  0  0  0  0  0  0  0  0  0  0  0
    1.0247    8.6134   -1.8226 C   0  0  0  0  0  0  0  0  0  0  0  0
    2.3378    9.0395   -2.2846 O   0  0  0  0  0  0  0  0  0  0  0  0
   -0.2359    8.9942   -4.0766 H   0  0  0  0  0  0  0  0  0  0  0  0
    0.6163    6.5722   -2.9157 H   0  0  0  0  0  0  0  0  0  0  0  0
   -1.7867    6.6438   -4.1310 H   0  0  0  0  0  0  0  0  0  0  0  0
   -1.2845    7.0208   -2.4626 H   0  0  0  0  0  0  0  0  0  0  0  0
    0.7317    8.1413   -5.8721 H   0  0  0  0  0  0  0  0  0  0  0  0
    0.6907    6.4800   -5.1901 H   0  0  0  0  0  0  0  0  0  0  0  0
   -0.8114    7.2224   -5.8376 H   0  0  0  0  0  0  0  0  0  0  0  0
   -2.0507    9.3686   -2.7567 H   0  0  0  0  0  0  0  0  0  0  0  0
   -2.5363    8.9693   -4.4622 H   0  0  0  0  0  0  0  0  0  0  0  0
   -3.9395    7.0701   -3.1575 H   0  0  0  0  0  0  0  0  0  0  0  0
   -3.9115    8.2882   -1.8730 H   0  0  0  0  0  0  0  0  0  0  0  0
   -4.8138   10.6403   -2.8310 H   0  0  0  0  0  0  0  0  0  0  0  0
   -7.4232   10.7455   -2.7865 H   0  0  0  0  0  0  0  0  0  0  0  0
   -7.4799    9.3194   -3.6743 H   0  0  0  0  0  0  0  0  0  0  0  0
   -5.2119    8.0258   -1.2664 H   0  0  0  0  0  0  0  0  0  0  0  0
   -5.2051    9.4756   -0.4169 H   0  0  0  0  0  0  0  0  0  0  0  0
    3.0712    7.3370   -3.3748 H   0  0  0  0  0  0  0  0  0  0  0  0
    2.4917    8.5081   -4.4321 H   0  0  0  0  0  0  0  0  0  0  0  0
    0.2757    9.4189   -1.8100 H   0  0  0  0  0  0  0  0  0  0  0  0
    0.9044    8.2350   -0.7968 H   0  0  0  0  0  0  0  0  0  0  0  0
  1  2  1  0
  3  1  1  0
  1  4  1  0
  3  5  1  0
  5  6  1  0
  7  6  1  0
  7  8  1  0
  8  9  1  0
  8 10  1  0
  9 11  1  0
 10 11  1  0
  2 12  1  0
  2 13  1  0
 12 14  1  0
 13 14  1  0
  1 15  1  0
  2 16  1  0
  3 17  1  0
  3 18  1  0
  4 19  1  0
  4 20  1  0
  4 21  1  0
  5 22  1  0
  5 23  1  0
  6 24  1  0
  6 25  1  0
  8 26  1  0
  9 27  1  0
  9 28  1  0
 10 29  1  0
 10 30  1  0
 12 31  1  0
 12 32  1  0
 13 33  1  0
 13 34  1  0
M  CHG  1   1   1
M  END
$$$$

     RDKit          3D

 27 29  0  0  0  0  0  0  0  0999 V2000
    0.7200   10.4400   -8.3270 C   0  0  0  0  0  0  0  0  0  0  0  0
    0.5285    9.3162   -7.4310 N   0  0  0  0  0  0  0  0  0  0  0  0
    1.6520   11.8460   -7.9610 S   0  0  0  0  0  3  0  0  0  0  0  0
    2.5100   12.0090   -6.4990 C   0  0  0  0  0  0  0  0  0  0  0  0
    0.6010   12.9330   -7.9940 O   0  0  0  0  0  0  0  0  0  0  0  0
    3.4150   13.0050   -6.3620 N   0  0  0  0  0  0  0  0  0  0  0  0
    2.3160   11.2310   -5.4170 N   0  0  0  0  0  0  0  0  0  0  0  0
    3.8770   12.8740   -5.1010 C   0  0  0  0  0  0  0  0  0  0  0  0
    3.1650   11.7250   -4.4860 C   0  0  0  0  0  0  0  0  0  0  0  0
    4.8200   13.5610   -4.3510 C   0  0  0  0  0  0  0  0  0  0  0  0
    3.4510   11.3720   -3.1790 C   0  0  0  0  0  0  0  0  0  0  0  0
    5.0840   13.1730   -3.0410 C   0  0  0  0  0  0  0  0  0  0  0  0
    4.4040   12.1030   -2.4750 C   0  0  0  0  0  0  0  0  0  0  0  0
    1.0592    8.1029   -7.6030 C   0  0  0  0  0  0  0  0  0  0  0  0
   -0.2041    9.3451   -6.3145 N   0  0  0  0  0  0  0  0  0  0  0  0
    0.6295    7.3737   -6.5494 C   0  0  0  0  0  0  0  0  0  0  0  0
   -0.1459    8.1550   -5.7689 N   0  0  0  0  0  0  0  0  0  0  0  0
    1.1710   10.0170   -9.2368 H   0  0  0  0  0  0  0  0  0  0  0  0
   -0.2935   10.8675   -8.3306 H   0  0  0  0  0  0  0  0  0  0  0  0
   -0.2925   12.5245   -8.1157 H   0  0  0  0  0  0  0  0  0  0  0  0
    1.6666   10.4374   -5.3198 H   0  0  0  0  0  0  0  0  0  0  0  0
    5.3592   14.4125   -4.7917 H   0  0  0  0  0  0  0  0  0  0  0  0
    2.9330   10.5262   -2.7032 H   0  0  0  0  0  0  0  0  0  0  0  0
    5.8358   13.7172   -2.4505 H   0  0  0  0  0  0  0  0  0  0  0  0
    4.6259   11.8232   -1.4346 H   0  0  0  0  0  0  0  0  0  0  0  0
    1.7075    7.7685   -8.4263 H   0  0  0  0  0  0  0  0  0  0  0  0
    0.8718    6.3177   -6.3595 H   0  0  0  0  0  0  0  0  0  0  0  0
  1  2  1  0
  3  1  1  0
  4  3  1  0
  3  5  1  1
  6  4  2  0
  4  7  1  0
  8  6  1  0
  9  7  1  0
  9  8  2  0
  8 10  1  0
 11  9  1  0
 10 12  2  0
 11 13  2  0
 12 13  1  0
  2 14  1  0
  2 15  1  0
 14 16  2  0
 15 17  2  0
 17 16  1  0
  1 18  1  0
  1 19  1  0
  5 20  1  0
  7 21  1  0
 10 22  1  0
 11 23  1  0
 12 24  1  0
 13 25  1  0
 14 26  1  0
 16 27  1  0
M  CHG  1   3   1
M  END
$$$$

     RDKit          3D

 15 15  0  0  0  0  0  0  0  0999 V2000
   -0.1850    7.9650   -3.9690 O   0  0  0  0  0  0  0  0  0  0  0  0
   -1.4369    7.4367   -3.4630 C   0  0  0  0  0  0  0  0  0  0  0  0
    0.0847    8.0403   -5.3917 C   0  0  0  0  0  0  0  0  0  0  0  0
    1.1079    9.0239   -5.6682 C   0  0  0  0  0  0  0  0  0  0  0  0
    1.9151    9.7780   -5.9276 N   0  0  0  0  0  0  0  0  0  0  0  0
   -1.3122    6.5132   -2.2140 C   0  0  0  0  0  0  0  0  0  0  0  0
   -2.2219    8.3870   -2.5041 C   0  0  0  0  0  0  0  0  0  0  0  0
   -2.0213    7.4785   -1.3845 O   0  0  0  0  0  0  0  0  0  0  0  0
   -1.8360    7.0924   -4.4285 H   0  0  0  0  0  0  0  0  0  0  0  0
    0.4247    7.0563   -5.7470 H   0  0  0  0  0  0  0  0  0  0  0  0
   -0.8388    8.3362   -5.9109 H   0  0  0  0  0  0  0  0  0  0  0  0
   -1.8348    5.5511   -2.3199 H   0  0  0  0  0  0  0  0  0  0  0  0
   -0.3215    6.1514   -1.9016 H   0  0  0  0  0  0  0  0  0  0  0  0
   -1.7481    9.3704   -2.3681 H   0  0  0  0  0  0  0  0  0  0  0  0
   -3.2398    8.7089   -2.7690 H   0  0  0  0  0  0  0  0  0  0  0  0
  1  2  1  0
  1  3  1  0
  3  4  1  0
  4  5  3  0
  2  6  1  0
  2  7  1  0
  6  8  1  0
  7  8  1  0
  2  9  1  0
  3 10  1  0
  3 11  1  0
  6 12  1  0
  6 13  1  0
  7 14  1  0
  7 15  1  0
M  END
$$$$

     RDKit          3D

 15 15  0  0  0  0  0  0  0  0999 V2000
   -0.1850    7.9650   -3.9690 O   0  0  0  0  0  0  0  0  0  0  0  0
   -1.4369    7.4367   -3.4630 C   0  0  0  0  0  0  0  0  0  0  0  0
    0.0847    8.0403   -5.3917 C   0  0  0  0  0  0  0  0  0  0  0  0
    0.9439    9.1638   -5.6918 C   0  0  0  0  0  0  0  0  0  0  0  0
    1.6257   10.0275   -5.9692 N   0  0  0  0  0  0  0  0  0  0  0  0
   -1.3267    6.6151   -2.1434 C   0  0  0  0  0  0  0  0  0  0  0  0
   -2.2813    8.4313   -2.6048 C   0  0  0  0  0  0  0  0  0  0  0  0
   -2.0913    7.6173   -1.4130 O   0  0  0  0  0  0  0  0  0  0  0  0
   -1.7931    7.0076   -4.4111 H   0  0  0  0  0  0  0  0  0  0  0  0
    0.5785    7.1120   -5.7149 H   0  0  0  0  0  0  0  0  0  0  0  0
   -0.8682    8.1723   -5.9251 H   0  0  0  0  0  0  0  0  0  0  0  0
   -1.8167    5.6314   -2.1913 H   0  0  0  0  0  0  0  0  0  0  0  0
   -0.3367    6.3099   -1.7736 H   0  0  0  0  0  0  0  0  0  0  0  0
   -1.8417    9.4369   -2.5300 H   0  0  0  0  0  0  0  0  0  0  0  0
   -3.2989    8.6993   -2.9251 H   0  0  0  0  0  0  0  0  0  0  0  0
  1  2  1  0
  1  3  1  0
  3  4  1  0
  4  5  3  0
  2  6  1  0
  2  7  1  0
  6  8  1  0
  7  8  1  0
  2  9  1  0
  3 10  1  0
  3 11  1  0
  6 12  1  0
  6 13  1  0
  7 14  1  0
  7 15  1  0
M  END
$$$$

     RDKit          3D

 27 29  0  0  0  0  0  0  0  0999 V2000
    0.7200   10.4400   -8.3270 C   0  0  0  0  0  0  0  0  0  0  0  0
    0.5285    9.3162   -7.4310 N   0  0  0  0  0  0  0  0  0  0  0  0
    1.6520   11.8460   -7.9610 S   0  0  0  0  0  3  0  0  0  0  0  0
    2.5100   12.0090   -6.4990 C   0  0  0  0  0  0  0  0  0  0  0  0
    0.6010   12.9330   -7.9940 O   0  0  0  0  0  0  0  0  0  0  0  0
    3.4150   13.0050   -6.3620 N   0  0  0  0  0  0  0  0  0  0  0  0
    2.3160   11.2310   -5.4170 N   0  0  0  0  0  0  0  0  0  0  0  0
    3.8770   12.8740   -5.1010 C   0  0  0  0  0  0  0  0  0  0  0  0
    3.1650   11.7250   -4.4860 C   0  0  0  0  0  0  0  0  0  0  0  0
    4.8200   13.5610   -4.3510 C   0  0  0  0  0  0  0  0  0  0  0  0
    3.4510   11.3720   -3.1790 C   0  0  0  0  0  0  0  0  0  0  0  0
    5.0840   13.1730   -3.0410 C   0  0  0  0  0  0  0  0  0  0  0  0
    4.4040   12.1030   -2.4750 C   0  0  0  0  0  0  0  0  0  0  0  0
    0.8370    8.0490   -7.7180 C   0  0  0  0  0  0  0  0  0  0  0  0
    0.0182    9.3990   -6.1995 N   0  0  0  0  0  0  0  0  0  0  0  0
    0.4994    7.3422   -6.6168 C   0  0  0  0  0  0  0  0  0  0  0  0
   -0.0023    8.1898   -5.6945 N   0  0  0  0  0  0  0  0  0  0  0  0
    1.1710   10.0170   -9.2368 H   0  0  0  0  0  0  0  0  0  0  0  0
   -0.2935   10.8675   -8.3306 H   0  0  0  0  0  0  0  0  0  0  0  0
    0.4732   13.2403   -8.9264 H   0  0  0  0  0  0  0  0  0  0  0  0
    1.6666   10.4374   -5.3198 H   0  0  0  0  0  0  0  0  0  0  0  0
    5.3592   14.4125   -4.7917 H   0  0  0  0  0  0  0  0  0  0  0  0
    2.9330   10.5262   -2.7032 H   0  0  0  0  0  0  0  0  0  0  0  0
    5.8358   13.7172   -2.4505 H   0  0  0  0  0  0  0  0  0  0  0  0
    4.6259   11.8232   -1.4346 H   0  0  0  0  0  0  0  0  0  0  0  0
    1.2727    7.6631   -8.6514 H   0  0  0  0  0  0  0  0  0  0  0  0
    0.6145    6.2553   -6.4928 H   0  0  0  0  0  0  0  0  0  0  0  0
  1  2  1  0
  3  1  1  0
  4  3  1  0
  3  5  1  1
  6  4  2  0
  4  7  1  0
  8  6  1  0
  9  7  1  0
  9  8  2  0
  8 10  1  0
 11  9  1  0
 10 12  2  0
 11 13  2  0
 12 13  1  0
  2 14  1  0
  2 15  1  0
 14 16  2  0
 15 17  2  0
 17 16  1  0
  1 18  1  0
  1 19  1  0
  5 20  1  0
  7 21  1  0
 10 22  1  0
 11 23  1  0
 12 24  1  0
 13 25  1  0
 14 26  1  0
 16 27  1  0
M  CHG  1   3   1
M  END
$$$$

     RDKit          3D

 10  9  0  0  0  0  0  0  0  0999 V2000
   -4.7430    8.9200   -3.6980 O   0  0  0  0  0  0  0  0  0  0  0  0
   -3.7837    8.1327   -2.9481 C   0  0  0  0  0  0  0  0  0  0  0  0
   -5.8490    8.1420   -4.1630 C   0  0  0  0  0  0  0  0  0  0  0  0
   -4.4334    7.4279   -1.8656 C   0  0  0  0  0  0  0  0  0  0  0  0
   -4.9055    6.8487   -1.0116 N   0  0  0  0  0  0  0  0  0  0  0  0
   -3.3110    7.4026   -3.6216 H   0  0  0  0  0  0  0  0  0  0  0  0
   -3.0262    8.8088   -2.5248 H   0  0  0  0  0  0  0  0  0  0  0  0
   -6.7646    8.7508   -4.1314 H   0  0  0  0  0  0  0  0  0  0  0  0
   -5.6600    7.8174   -5.1969 H   0  0  0  0  0  0  0  0  0  0  0  0
   -5.9731    7.2593   -3.5184 H   0  0  0  0  0  0  0  0  0  0  0  0
  1  2  1  0
  1  3  1  0
  2  4  1  0
  4  5  3  0
  2  6  1  0
  2  7  1  0
  3  8  1  0
  3  9  1  0
  3 10  1  0
M  END
$$$$

     RDKit          3D

 28 30  0  0  0  0  0  0  0  0999 V2000
    0.7115   10.3898   -8.2870 N   0  0  0  0  0  0  0  0  0  0  0  0
    0.5200    9.2660   -7.3910 C   0  0  0  0  0  0  0  0  0  0  0  0
   -0.0158   10.6268   -9.3815 C   0  0  0  0  0  0  0  0  0  0  0  0
    1.6408   11.3374   -8.1367 N   0  0  0  0  0  0  0  0  0  0  0  0
    0.4954   11.7607   -9.9101 C   0  0  0  0  0  0  0  0  0  0  0  0
    1.5130   12.1820   -9.1306 N   0  0  0  0  0  0  0  0  0  0  0  0
    0.2430    9.2710   -5.9990 C   0  0  0  0  0  0  0  0  0  0  0  0
    0.5800    8.0950   -8.0410 N   0  0  0  0  0  0  0  0  0  0  0  0
    0.0730    8.0370   -5.3300 C   0  0  0  0  0  0  0  0  0  0  0  0
    0.1340   10.5440   -5.1780 C   0  0  0  0  0  0  0  0  0  0  0  0
    0.4320    6.9230   -7.4130 C   0  0  0  0  0  0  0  0  0  0  0  0
   -0.1967    7.9617   -3.9073 C   0  0  0  0  0  0  0  0  0  0  0  0
    0.1710    6.8500   -6.0490 C   0  0  0  0  0  0  0  0  0  0  0  0
   -0.4696    6.5295   -3.3574 C   0  0  0  0  0  0  0  0  0  0  0  0
    1.0672    7.9175   -2.9911 C   0  0  0  0  0  0  0  0  0  0  0  0
    0.7516    6.5623   -2.5636 O   0  0  0  0  0  0  0  0  0  0  0  0
   -0.8523   10.0273   -9.7699 H   0  0  0  0  0  0  0  0  0  0  0  0
    0.1405   12.2580  -10.8249 H   0  0  0  0  0  0  0  0  0  0  0  0
   -0.9123   10.8832   -5.1645 H   0  0  0  0  0  0  0  0  0  0  0  0
    0.4687   10.3464   -4.1489 H   0  0  0  0  0  0  0  0  0  0  0  0
    0.7667   11.3245   -5.6259 H   0  0  0  0  0  0  0  0  0  0  0  0
    0.5192    5.9915   -7.9915 H   0  0  0  0  0  0  0  0  0  0  0  0
   -0.9392    8.7724   -3.8696 H   0  0  0  0  0  0  0  0  0  0  0  0
    0.0451    5.8774   -5.5507 H   0  0  0  0  0  0  0  0  0  0  0  0
   -1.3875    6.4527   -2.7560 H   0  0  0  0  0  0  0  0  0  0  0  0
   -0.6399    5.7002   -4.0598 H   0  0  0  0  0  0  0  0  0  0  0  0
    2.0167    7.9999   -3.5405 H   0  0  0  0  0  0  0  0  0  0  0  0
    1.2221    8.7043   -2.2381 H   0  0  0  0  0  0  0  0  0  0  0  0
  1  2  1  0
  1  3  1  0
  1  4  1  0
  3  5  2  0
  4  6  2  0
  6  5  1  0
  2  7  2  0
  2  8  1  0
  9  7  1  0
  7 10  1  0
  8 11  2  0
 12  9  1  0
 13  9  2  0
 11 13  1  0
 12 14  1  0
 12 15  1  0
 14 16  1  0
 15 16  1  0
  3 17  1  0
  5 18  1  0
 10 19  1  0
 10 20  1  0
 10 21  1  0
 11 22  1  0
 12 23  1  0
 13 24  1  0
 14 25  1  0
 14 26  1  0
 15 27  1  0
 15 28  1  0
M  END
$$$$

     RDKit          3D

 39 40  0  0  0  0  0  0  0  0999 V2000
   -0.1701    7.9713   -3.9750 N   0  0  0  0  0  4  0  0  0  0  0  0
    0.7948    7.9621   -2.8927 C   0  0  0  0  0  0  0  0  0  0  0  0
   -1.4220    7.4430   -3.4690 C   0  0  0  0  0  0  0  0  0  0  0  0
    0.3116    7.1720   -5.1081 C   0  0  0  0  0  0  0  0  0  0  0  0
   -2.4260    8.5890   -3.4360 C   0  0  0  0  0  0  0  0  0  0  0  0
   -3.7950    8.1420   -2.9570 C   0  0  0  0  0  0  0  0  0  0  0  0
   -4.7543    8.9293   -3.7069 N   0  0  0  0  0  4  0  0  0  0  0  0
   -6.0526    8.2949   -3.5860 C   0  0  0  0  0  0  0  0  0  0  0  0
   -4.8006   10.3082   -3.2056 C   0  0  0  0  0  0  0  0  0  0  0  0
   -7.2581    9.2710   -3.4372 C   0  0  0  0  0  0  0  0  0  0  0  0
   -6.7270    7.8953   -4.9366 C   0  0  0  0  0  0  0  0  0  0  0  0
   -7.7937    8.8639   -4.7295 O   0  0  0  0  0  0  0  0  0  0  0  0
    2.0378    8.8781   -3.1025 C   0  0  0  0  0  0  0  0  0  0  0  0
    0.4694    8.9188   -1.7021 C   0  0  0  0  0  0  0  0  0  0  0  0
    1.6345    9.7394   -1.9989 O   0  0  0  0  0  0  0  0  0  0  0  0
   -0.3069    8.9338   -4.3153 H   0  0  0  0  0  0  0  0  0  0  0  0
    0.8636    6.8695   -2.7852 H   0  0  0  0  0  0  0  0  0  0  0  0
   -1.7867    6.6438   -4.1310 H   0  0  0  0  0  0  0  0  0  0  0  0
   -1.2845    7.0208   -2.4626 H   0  0  0  0  0  0  0  0  0  0  0  0
    0.6404    6.1860   -4.7477 H   0  0  0  0  0  0  0  0  0  0  0  0
   -0.5012    7.0433   -5.8379 H   0  0  0  0  0  0  0  0  0  0  0  0
    1.1567    7.6876   -5.5876 H   0  0  0  0  0  0  0  0  0  0  0  0
   -2.0507    9.3686   -2.7567 H   0  0  0  0  0  0  0  0  0  0  0  0
   -2.5363    8.9693   -4.4622 H   0  0  0  0  0  0  0  0  0  0  0  0
   -3.9395    7.0701   -3.1575 H   0  0  0  0  0  0  0  0  0  0  0  0
   -3.9115    8.2882   -1.8730 H   0  0  0  0  0  0  0  0  0  0  0  0
   -4.4754    8.9726   -4.6974 H   0  0  0  0  0  0  0  0  0  0  0  0
   -5.7717    7.5633   -2.8140 H   0  0  0  0  0  0  0  0  0  0  0  0
   -3.7813   10.7203   -3.1714 H   0  0  0  0  0  0  0  0  0  0  0  0
   -5.4216   10.9212   -3.8754 H   0  0  0  0  0  0  0  0  0  0  0  0
   -5.2336   10.3164   -2.1945 H   0  0  0  0  0  0  0  0  0  0  0  0
   -7.9180    9.0348   -2.5894 H   0  0  0  0  0  0  0  0  0  0  0  0
   -7.0738   10.3366   -3.2359 H   0  0  0  0  0  0  0  0  0  0  0  0
   -6.1060    8.1013   -5.8209 H   0  0  0  0  0  0  0  0  0  0  0  0
   -6.9776    6.8418   -5.1299 H   0  0  0  0  0  0  0  0  0  0  0  0
    2.9980    8.3671   -2.9383 H   0  0  0  0  0  0  0  0  0  0  0  0
    2.2296    9.3166   -4.0929 H   0  0  0  0  0  0  0  0  0  0  0  0
   -0.4873    9.4511   -1.8091 H   0  0  0  0  0  0  0  0  0  0  0  0
    0.3372    8.5055   -0.6913 H   0  0  0  0  0  0  0  0  0  0  0  0
  1  2  1  0
  3  1  1  0
  1  4  1  0
  3  5  1  0
  5  6  1  0
  6  7  1  0
  7  8  1  0
  7  9  1  0
  8 10  1  0
  8 11  1  0
 10 12  1  0
 11 12  1  0
  2 13  1  0
  2 14  1  0
 13 15  1  0
 14 15  1  0
  1 16  1  0
  2 17  1  0
  3 18  1  0
  3 19  1  0
  4 20  1  0
  4 21  1  0
  4 22  1  0
  5 23  1  0
  5 24  1  0
  6 25  1  0
  6 26  1  0
  7 27  1  0
  8 28  1  0
  9 29  1  0
  9 30  1  0
  9 31  1  0
 10 32  1  0
 10 33  1  0
 11 34  1  0
 11 35  1  0
 13 36  1  0
 13 37  1  0
 14 38  1  0
 14 39  1  0
M  CHG  2   1   1   7   1
M  END
$$$$

     RDKit          3D

 21 22  0  0  0  0  0  0  0  0999 V2000
   -0.1850    7.9650   -3.9690 O   0  0  0  0  0  0  0  0  0  0  0  0
    0.0847    8.0403   -5.3917 C   0  0  0  0  0  0  0  0  0  0  0  0
   -1.4369    7.4367   -3.4630 C   0  0  0  0  0  0  0  0  0  0  0  0
   -1.3210    6.1051   -2.6619 C   0  0  0  0  0  0  0  0  0  0  0  0
   -1.9165    8.0441   -2.1066 C   0  0  0  0  0  0  0  0  0  0  0  0
   -1.7401    6.7659   -1.4329 O   0  0  0  0  0  0  0  0  0  0  0  0
    0.7671    9.1216   -5.9086 C   0  0  0  0  0  0  0  0  0  0  0  0
   -0.3410    7.0305   -6.2292 C   0  0  0  0  0  0  0  0  0  0  0  0
    1.0141    9.1747   -7.2666 C   0  0  0  0  0  0  0  0  0  0  0  0
   -0.0743    7.1207   -7.5815 C   0  0  0  0  0  0  0  0  0  0  0  0
    0.5941    8.1823   -8.0793 N   0  0  0  0  0  4  0  0  0  0  0  0
    0.8397    8.2507   -9.3744 O   0  0  0  0  0  1  0  0  0  0  0  0
   -2.0079    7.5283   -4.3987 H   0  0  0  0  0  0  0  0  0  0  0  0
   -2.0135    5.3211   -3.0022 H   0  0  0  0  0  0  0  0  0  0  0  0
   -0.3781    5.5389   -2.6810 H   0  0  0  0  0  0  0  0  0  0  0  0
   -1.2642    8.8421   -1.7223 H   0  0  0  0  0  0  0  0  0  0  0  0
   -2.8871    8.5589   -2.0530 H   0  0  0  0  0  0  0  0  0  0  0  0
    1.1102    9.9313   -5.2479 H   0  0  0  0  0  0  0  0  0  0  0  0
   -0.8859    6.1645   -5.8254 H   0  0  0  0  0  0  0  0  0  0  0  0
    1.5575   10.0327   -7.6891 H   0  0  0  0  0  0  0  0  0  0  0  0
   -0.4094    6.3208   -8.2582 H   0  0  0  0  0  0  0  0  0  0  0  0
  1  2  1  0
  1  3  1  0
  3  4  1  0
  3  5  1  0
  4  6  1  0
  5  6  1  0
  7  2  2  0
  2  8  1  0
  9  7  1  0
 10  8  2  0
  9 11  2  0
 11 10  1  0
 11 12  1  0
  3 13  1  0
  4 14  1  0
  4 15  1  0
  5 16  1  0
  5 17  1  0
  7 18  1  0
  8 19  1  0
  9 20  1  0
 10 21  1  0
M  CHG  2  11   1  12  -1
M  END
$$$$

     RDKit          3D

 15 15  0  0  0  0  0  0  0  0999 V2000
   -0.1850    7.9650   -3.9690 O   0  0  0  0  0  0  0  0  0  0  0  0
   -1.4369    7.4367   -3.4630 C   0  0  0  0  0  0  0  0  0  0  0  0
    0.0847    8.0403   -5.3917 C   0  0  0  0  0  0  0  0  0  0  0  0
    1.0184    9.1059   -5.6808 C   0  0  0  0  0  0  0  0  0  0  0  0
    1.7571    9.9241   -5.9498 N   0  0  0  0  0  0  0  0  0  0  0  0
   -1.5791    5.8863   -3.5287 C   0  0  0  0  0  0  0  0  0  0  0  0
   -1.4972    7.2333   -1.9158 C   0  0  0  0  0  0  0  0  0  0  0  0
   -1.5875    5.7892   -2.0751 O   0  0  0  0  0  0  0  0  0  0  0  0
   -2.1010    8.1255   -4.0057 H   0  0  0  0  0  0  0  0  0  0  0  0
    0.5123    7.0845   -5.7289 H   0  0  0  0  0  0  0  0  0  0  0  0
   -0.8586    8.2446   -5.9195 H   0  0  0  0  0  0  0  0  0  0  0  0
   -2.5123    5.5461   -4.0013 H   0  0  0  0  0  0  0  0  0  0  0  0
   -0.8535    5.2975   -4.1091 H   0  0  0  0  0  0  0  0  0  0  0  0
   -0.5908    7.5659   -1.3888 H   0  0  0  0  0  0  0  0  0  0  0  0
   -2.2581    7.7651   -1.3256 H   0  0  0  0  0  0  0  0  0  0  0  0
  1  2  1  0
  1  3  1  0
  3  4  1  0
  4  5  3  0
  2  6  1  0
  2  7  1  0
  6  8  1  0
  7  8  1  0
  2  9  1  0
  3 10  1  0
  3 11  1  0
  6 12  1  0
  6 13  1  0
  7 14  1  0
  7 15  1  0
M  END
$$$$

     RDKit          3D

 33 34  0  0  0  0  0  0  0  0999 V2000
   -4.7543    8.9293   -3.7069 N   0  0  0  0  0  4  0  0  0  0  0  0
   -6.0822    8.7192   -3.1635 C   0  0  0  0  0  0  0  0  0  0  0  0
   -3.7950    8.1420   -2.9570 C   0  0  0  0  0  0  0  0  0  0  0  0
   -2.4260    8.5890   -3.4360 C   0  0  0  0  0  0  0  0  0  0  0  0
   -1.4220    7.4430   -3.4690 C   0  0  0  0  0  0  0  0  0  0  0  0
   -0.1701    7.9713   -3.9750 N   0  0  0  0  0  0  0  0  0  0  0  0
    0.5352    8.8926   -3.3624 C   0  0  0  0  0  0  0  0  0  0  0  0
    0.4477    7.5401   -5.2207 C   0  0  0  0  0  0  0  0  0  0  0  0
    0.2394    9.5200   -2.2287 N   0  0  0  0  0  0  0  0  0  0  0  0
    1.6370    9.1490   -4.0335 N   0  0  0  0  0  0  0  0  0  0  0  0
    1.6956    8.4170   -5.2969 C   0  0  0  0  0  0  0  0  0  0  0  0
   -6.7906    9.9990   -2.6261 C   0  0  0  0  0  0  0  0  0  0  0  0
   -7.2363    8.6956   -4.2153 C   0  0  0  0  0  0  0  0  0  0  0  0
   -7.8051    9.9190   -3.6686 O   0  0  0  0  0  0  0  0  0  0  0  0
   -4.7381    8.6400   -4.6953 H   0  0  0  0  0  0  0  0  0  0  0  0
   -4.5088    9.9272   -3.6371 H   0  0  0  0  0  0  0  0  0  0  0  0
   -5.8306    7.8583   -2.5267 H   0  0  0  0  0  0  0  0  0  0  0  0
   -3.9039    8.3313   -1.8789 H   0  0  0  0  0  0  0  0  0  0  0  0
   -3.9460    7.0638   -3.1143 H   0  0  0  0  0  0  0  0  0  0  0  0
   -2.5239    9.0028   -4.4505 H   0  0  0  0  0  0  0  0  0  0  0  0
   -2.0519    9.3437   -2.7286 H   0  0  0  0  0  0  0  0  0  0  0  0
   -1.2773    7.0418   -2.4550 H   0  0  0  0  0  0  0  0  0  0  0  0
   -1.7861    6.6289   -4.1129 H   0  0  0  0  0  0  0  0  0  0  0  0
    0.7140    6.4734   -5.1831 H   0  0  0  0  0  0  0  0  0  0  0  0
   -0.2127    7.6432   -6.0944 H   0  0  0  0  0  0  0  0  0  0  0  0
    0.8828   10.2294   -1.8497 H   0  0  0  0  0  0  0  0  0  0  0  0
    2.3731    9.7911   -3.7065 H   0  0  0  0  0  0  0  0  0  0  0  0
    2.6084    7.8066   -5.3621 H   0  0  0  0  0  0  0  0  0  0  0  0
    1.7240    9.0679   -6.1832 H   0  0  0  0  0  0  0  0  0  0  0  0
   -7.1916    9.8894   -1.6077 H   0  0  0  0  0  0  0  0  0  0  0  0
   -6.2139   10.9269   -2.4981 H   0  0  0  0  0  0  0  0  0  0  0  0
   -6.8911    8.7927   -5.2552 H   0  0  0  0  0  0  0  0  0  0  0  0
   -7.8654    7.7988   -4.3138 H   0  0  0  0  0  0  0  0  0  0  0  0
  1  2  1  0
  3  1  1  0
  4  3  1  0
  5  4  1  0
  5  6  1  0
  6  7  1  0
  6  8  1  0
  7  9  2  3
  7 10  1  0
  8 11  1  0
 11 10  1  0
  2 12  1  0
  2 13  1  0
 12 14  1  0
 13 14  1  0
  1 15  1  0
  1 16  1  0
  2 17  1  0
  3 18  1  0
  3 19  1  0
  4 20  1  0
  4 21  1  0
  5 22  1  0
  5 23  1  0
  8 24  1  0
  8 25  1  0
  9 26  1  0
 10 27  1  0
 11 28  1  0
 11 29  1  0
 12 30  1  0
 12 31  1  0
 13 32  1  0
 13 33  1  0
M  CHG  1   1   1
M  END
$$$$

     RDKit          3D

 15 15  0  0  0  0  0  0  0  0999 V2000
   -0.1850    7.9650   -3.9690 O   0  0  0  0  0  0  0  0  0  0  0  0
   -1.4369    7.4367   -3.4630 C   0  0  0  0  0  0  0  0  0  0  0  0
    0.0847    8.0403   -5.3917 C   0  0  0  0  0  0  0  0  0  0  0  0
    0.8396    9.2323   -5.7080 C   0  0  0  0  0  0  0  0  0  0  0  0
    1.4413   10.1497   -5.9977 N   0  0  0  0  0  0  0  0  0  0  0  0
   -1.3312    6.0676   -2.7262 C   0  0  0  0  0  0  0  0  0  0  0  0
   -1.8790    7.9894   -2.0709 C   0  0  0  0  0  0  0  0  0  0  0  0
   -1.7142    6.6784   -1.4602 O   0  0  0  0  0  0  0  0  0  0  0  0
   -2.0237    7.5818   -4.3820 H   0  0  0  0  0  0  0  0  0  0  0  0
    0.6629    7.1555   -5.6966 H   0  0  0  0  0  0  0  0  0  0  0  0
   -0.8733    8.0756   -5.9312 H   0  0  0  0  0  0  0  0  0  0  0  0
   -2.0449    5.3129   -3.0884 H   0  0  0  0  0  0  0  0  0  0  0  0
   -0.3998    5.4859   -2.7900 H   0  0  0  0  0  0  0  0  0  0  0  0
   -1.2044    8.7568   -1.6635 H   0  0  0  0  0  0  0  0  0  0  0  0
   -2.8384    8.5187   -1.9745 H   0  0  0  0  0  0  0  0  0  0  0  0
  1  2  1  0
  1  3  1  0
  3  4  1  0
  4  5  3  0
  2  6  1  0
  2  7  1  0
  6  8  1  0
  7  8  1  0
  2  9  1  0
  3 10  1  0
  3 11  1  0
  6 12  1  0
  6 13  1  0
  7 14  1  0
  7 15  1  0
M  END
$$$$
