3pgl_ligand
     RDKit          3D

 25 27  0  0  0  0  0  0  0  0999 V2000
    3.4510   11.3720   -3.1790 C   0  0  0  0  0  0  0  0  0  0  0  0
    3.1650   11.7250   -4.4860 C   0  0  0  0  0  0  0  0  0  0  0  0
    3.8770   12.8740   -5.1010 C   0  0  0  0  0  0  0  0  0  0  0  0
    4.8200   13.5610   -4.3510 C   0  0  0  0  0  0  0  0  0  0  0  0
    5.0840   13.1730   -3.0410 C   0  0  0  0  0  0  0  0  0  0  0  0
    4.4040   12.1030   -2.4750 C   0  0  0  0  0  0  0  0  0  0  0  0
    3.4150   13.0050   -6.3620 N   0  0  0  0  0  0  0  0  0  0  0  0
    2.5100   12.0090   -6.4990 C   0  0  0  0  0  0  0  0  0  0  0  0
    2.3160   11.2310   -5.4170 N   0  0  0  0  0  0  0  0  0  0  0  0
    1.6520   11.8460   -7.9610 S   0  0  0  0  0  3  0  0  0  0  0  0
    0.7200   10.4400   -8.3270 C   0  0  0  0  0  0  0  0  0  0  0  0
    0.5200    9.2660   -7.3910 C   0  0  0  0  0  0  0  0  0  0  0  0
    0.5800    8.0950   -8.0410 N   0  0  0  0  0  0  0  0  0  0  0  0
    0.4320    6.9230   -7.4130 C   0  0  0  0  0  0  0  0  0  0  0  0
    0.1710    6.8500   -6.0490 C   0  0  0  0  0  0  0  0  0  0  0  0
    0.0730    8.0370   -5.3300 C   0  0  0  0  0  0  0  0  0  0  0  0
    0.2430    9.2710   -5.9990 C   0  0  0  0  0  0  0  0  0  0  0  0
    0.6010   12.9330   -7.9940 O   0  0  0  0  0  0  0  0  0  0  0  0
   -0.1850    7.9650   -3.9690 O   0  0  0  0  0  0  0  0  0  0  0  0
   -1.4220    7.4430   -3.4690 C   0  0  0  0  0  0  0  0  0  0  0  0
   -2.4260    8.5890   -3.4360 C   0  0  0  0  0  0  0  0  0  0  0  0
   -3.7950    8.1420   -2.9570 C   0  0  0  0  0  0  0  0  0  0  0  0
   -4.7430    8.9200   -3.6980 O   0  0  0  0  0  0  0  0  0  0  0  0
   -5.8490    8.1420   -4.1630 C   0  0  0  0  0  0  0  0  0  0  0  0
    0.1340   10.5440   -5.1780 C   0  0  0  0  0  0  0  0  0  0  0  0
  1  2  2  0
  1  6  1  0
  2  3  1  0
  2  9  1  0
  3  4  2  0
  3  7  1  0
  4  5  1  0
  5  6  2  0
  7  8  2  0
  8  9  1  0
  8 10  1  0
 10 11  1  0
 10 18  1  1
 11 12  1  0
 12 13  2  0
 12 17  1  0
 13 14  1  0
 14 15  2  0
 15 16  1  0
 16 17  2  0
 16 19  1  0
 17 25  1  0
 19 20  1  0
 20 21  1  0
 21 22  1  0
 22 23  1  0
 23 24  1  0
M  CHG  1  10   1
M  END
>  <_TriposChargeType>  (1) 
GAsT_HUCK

>  <PDB_ID>  (1) 
3pgl

$$$$
3pgl_ligand
     RDKit          3D

 25 27  0  0  0  0  0  0  0  0999 V2000
    3.4510   11.3720   -3.1790 C   0  0  0  0  0  0  0  0  0  0  0  0
    3.1650   11.7250   -4.4860 C   0  0  0  0  0  0  0  0  0  0  0  0
    3.8770   12.8740   -5.1010 C   0  0  0  0  0  0  0  0  0  0  0  0
    4.8200   13.5610   -4.3510 C   0  0  0  0  0  0  0  0  0  0  0  0
    5.0840   13.1730   -3.0410 C   0  0  0  0  0  0  0  0  0  0  0  0
    4.4040   12.1030   -2.4750 C   0  0  0  0  0  0  0  0  0  0  0  0
    3.4150   13.0050   -6.3620 N   0  0  0  0  0  0  0  0  0  0  0  0
    2.5100   12.0090   -6.4990 C   0  0  0  0  0  0  0  0  0  0  0  0
    2.3160   11.2310   -5.4170 N   0  0  0  0  0  0  0  0  0  0  0  0
    1.6520   11.8460   -7.9610 S   0  0  0  0  0  3  0  0  0  0  0  0
    0.7200   10.4400   -8.3270 C   0  0  0  0  0  0  0  0  0  0  0  0
    0.5200    9.2660   -7.3910 C   0  0  0  0  0  0  0  0  0  0  0  0
    0.5800    8.0950   -8.0410 N   0  0  0  0  0  0  0  0  0  0  0  0
    0.4320    6.9230   -7.4130 C   0  0  0  0  0  0  0  0  0  0  0  0
    0.1710    6.8500   -6.0490 C   0  0  0  0  0  0  0  0  0  0  0  0
    0.0730    8.0370   -5.3300 C   0  0  0  0  0  0  0  0  0  0  0  0
    0.2430    9.2710   -5.9990 C   0  0  0  0  0  0  0  0  0  0  0  0
    0.6010   12.9330   -7.9940 O   0  0  0  0  0  0  0  0  0  0  0  0
   -0.1850    7.9650   -3.9690 O   0  0  0  0  0  0  0  0  0  0  0  0
   -1.4220    7.4430   -3.4690 C   0  0  0  0  0  0  0  0  0  0  0  0
   -2.4260    8.5890   -3.4360 C   0  0  0  0  0  0  0  0  0  0  0  0
   -3.7950    8.1420   -2.9570 C   0  0  0  0  0  0  0  0  0  0  0  0
   -4.7430    8.9200   -3.6980 O   0  0  0  0  0  0  0  0  0  0  0  0
   -5.8490    8.1420   -4.1630 C   0  0  0  0  0  0  0  0  0  0  0  0
    0.1340   10.5440   -5.1780 C   0  0  0  0  0  0  0  0  0  0  0  0
  1  2  2  0
  1  6  1  0
  2  3  1  0
  2  9  1  0
  3  4  2  0
  3  7  1  0
  4  5  1  0
  5  6  2  0
  7  8  2  0
  8  9  1  0
  8 10  1  0
 10 11  1  0
 10 18  1  1
 11 12  1  0
 12 13  2  0
 12 17  1  0
 13 14  1  0
 14 15  2  0
 15 16  1  0
 16 17  2  0
 16 19  1  0
 17 25  1  0
 19 20  1  0
 20 21  1  0
 21 22  1  0
 22 23  1  0
 23 24  1  0
M  CHG  1  10   1
M  END
>  <_TriposChargeType>  (2) 
GAsT_HUCK

>  <PDB_ID>  (2) 
3pgl

$$$$
3pgl_ligand
     RDKit          3D

 25 27  0  0  0  0  0  0  0  0999 V2000
    3.4510   11.3720   -3.1790 C   0  0  0  0  0  0  0  0  0  0  0  0
    3.1650   11.7250   -4.4860 C   0  0  0  0  0  0  0  0  0  0  0  0
    3.8770   12.8740   -5.1010 C   0  0  0  0  0  0  0  0  0  0  0  0
    4.8200   13.5610   -4.3510 C   0  0  0  0  0  0  0  0  0  0  0  0
    5.0840   13.1730   -3.0410 C   0  0  0  0  0  0  0  0  0  0  0  0
    4.4040   12.1030   -2.4750 C   0  0  0  0  0  0  0  0  0  0  0  0
    3.4150   13.0050   -6.3620 N   0  0  0  0  0  0  0  0  0  0  0  0
    2.5100   12.0090   -6.4990 C   0  0  0  0  0  0  0  0  0  0  0  0
    2.3160   11.2310   -5.4170 N   0  0  0  0  0  0  0  0  0  0  0  0
    1.6520   11.8460   -7.9610 S   0  0  0  0  0  3  0  0  0  0  0  0
    0.7200   10.4400   -8.3270 C   0  0  0  0  0  0  0  0  0  0  0  0
    0.5200    9.2660   -7.3910 C   0  0  0  0  0  0  0  0  0  0  0  0
    0.5800    8.0950   -8.0410 N   0  0  0  0  0  0  0  0  0  0  0  0
    0.4320    6.9230   -7.4130 C   0  0  0  0  0  0  0  0  0  0  0  0
    0.1710    6.8500   -6.0490 C   0  0  0  0  0  0  0  0  0  0  0  0
    0.0730    8.0370   -5.3300 C   0  0  0  0  0  0  0  0  0  0  0  0
    0.2430    9.2710   -5.9990 C   0  0  0  0  0  0  0  0  0  0  0  0
    0.6010   12.9330   -7.9940 O   0  0  0  0  0  0  0  0  0  0  0  0
   -0.1850    7.9650   -3.9690 O   0  0  0  0  0  0  0  0  0  0  0  0
   -1.4220    7.4430   -3.4690 C   0  0  0  0  0  0  0  0  0  0  0  0
   -2.4260    8.5890   -3.4360 C   0  0  0  0  0  0  0  0  0  0  0  0
   -3.7950    8.1420   -2.9570 C   0  0  0  0  0  0  0  0  0  0  0  0
   -4.7430    8.9200   -3.6980 O   0  0  0  0  0  0  0  0  0  0  0  0
   -5.8490    8.1420   -4.1630 C   0  0  0  0  0  0  0  0  0  0  0  0
    0.1340   10.5440   -5.1780 C   0  0  0  0  0  0  0  0  0  0  0  0
  1  2  2  0
  1  6  1  0
  2  3  1  0
  2  9  1  0
  3  4  2  0
  3  7  1  0
  4  5  1  0
  5  6  2  0
  7  8  2  0
  8  9  1  0
  8 10  1  0
 10 11  1  0
 10 18  1  1
 11 12  1  0
 12 13  2  0
 12 17  1  0
 13 14  1  0
 14 15  2  0
 15 16  1  0
 16 17  2  0
 16 19  1  0
 17 25  1  0
 19 20  1  0
 20 21  1  0
 21 22  1  0
 22 23  1  0
 23 24  1  0
M  CHG  1  10   1
M  END
>  <_TriposChargeType>  (3) 
GAsT_HUCK

>  <PDB_ID>  (3) 
3pgl

$$$$
3pgl_ligand
     RDKit          3D

 25 27  0  0  0  0  0  0  0  0999 V2000
    3.4510   11.3720   -3.1790 C   0  0  0  0  0  0  0  0  0  0  0  0
    3.1650   11.7250   -4.4860 C   0  0  0  0  0  0  0  0  0  0  0  0
    3.8770   12.8740   -5.1010 C   0  0  0  0  0  0  0  0  0  0  0  0
    4.8200   13.5610   -4.3510 C   0  0  0  0  0  0  0  0  0  0  0  0
    5.0840   13.1730   -3.0410 C   0  0  0  0  0  0  0  0  0  0  0  0
    4.4040   12.1030   -2.4750 C   0  0  0  0  0  0  0  0  0  0  0  0
    3.4150   13.0050   -6.3620 N   0  0  0  0  0  0  0  0  0  0  0  0
    2.5100   12.0090   -6.4990 C   0  0  0  0  0  0  0  0  0  0  0  0
    2.3160   11.2310   -5.4170 N   0  0  0  0  0  0  0  0  0  0  0  0
    1.6520   11.8460   -7.9610 S   0  0  0  0  0  3  0  0  0  0  0  0
    0.7200   10.4400   -8.3270 C   0  0  0  0  0  0  0  0  0  0  0  0
    0.5200    9.2660   -7.3910 C   0  0  0  0  0  0  0  0  0  0  0  0
    0.5800    8.0950   -8.0410 N   0  0  0  0  0  0  0  0  0  0  0  0
    0.4320    6.9230   -7.4130 C   0  0  0  0  0  0  0  0  0  0  0  0
    0.1710    6.8500   -6.0490 C   0  0  0  0  0  0  0  0  0  0  0  0
    0.0730    8.0370   -5.3300 C   0  0  0  0  0  0  0  0  0  0  0  0
    0.2430    9.2710   -5.9990 C   0  0  0  0  0  0  0  0  0  0  0  0
    0.6010   12.9330   -7.9940 O   0  0  0  0  0  0  0  0  0  0  0  0
   -0.1850    7.9650   -3.9690 O   0  0  0  0  0  0  0  0  0  0  0  0
   -1.4220    7.4430   -3.4690 C   0  0  0  0  0  0  0  0  0  0  0  0
   -2.4260    8.5890   -3.4360 C   0  0  0  0  0  0  0  0  0  0  0  0
   -3.7950    8.1420   -2.9570 C   0  0  0  0  0  0  0  0  0  0  0  0
   -4.7430    8.9200   -3.6980 O   0  0  0  0  0  0  0  0  0  0  0  0
   -5.8490    8.1420   -4.1630 C   0  0  0  0  0  0  0  0  0  0  0  0
    0.1340   10.5440   -5.1780 C   0  0  0  0  0  0  0  0  0  0  0  0
  1  2  2  0
  1  6  1  0
  2  3  1  0
  2  9  1  0
  3  4  2  0
  3  7  1  0
  4  5  1  0
  5  6  2  0
  7  8  2  0
  8  9  1  0
  8 10  1  0
 10 11  1  0
 10 18  1  1
 11 12  1  0
 12 13  2  0
 12 17  1  0
 13 14  1  0
 14 15  2  0
 15 16  1  0
 16 17  2  0
 16 19  1  0
 17 25  1  0
 19 20  1  0
 20 21  1  0
 21 22  1  0
 22 23  1  0
 23 24  1  0
M  CHG  1  10   1
M  END
>  <_TriposChargeType>  (4) 
GAsT_HUCK

>  <PDB_ID>  (4) 
3pgl

$$$$
3pgl_ligand
     RDKit          3D

 25 27  0  0  0  0  0  0  0  0999 V2000
    3.4510   11.3720   -3.1790 C   0  0  0  0  0  0  0  0  0  0  0  0
    3.1650   11.7250   -4.4860 C   0  0  0  0  0  0  0  0  0  0  0  0
    3.8770   12.8740   -5.1010 C   0  0  0  0  0  0  0  0  0  0  0  0
    4.8200   13.5610   -4.3510 C   0  0  0  0  0  0  0  0  0  0  0  0
    5.0840   13.1730   -3.0410 C   0  0  0  0  0  0  0  0  0  0  0  0
    4.4040   12.1030   -2.4750 C   0  0  0  0  0  0  0  0  0  0  0  0
    3.4150   13.0050   -6.3620 N   0  0  0  0  0  0  0  0  0  0  0  0
    2.5100   12.0090   -6.4990 C   0  0  0  0  0  0  0  0  0  0  0  0
    2.3160   11.2310   -5.4170 N   0  0  0  0  0  0  0  0  0  0  0  0
    1.6520   11.8460   -7.9610 S   0  0  0  0  0  3  0  0  0  0  0  0
    0.7200   10.4400   -8.3270 C   0  0  0  0  0  0  0  0  0  0  0  0
    0.5200    9.2660   -7.3910 C   0  0  0  0  0  0  0  0  0  0  0  0
    0.5800    8.0950   -8.0410 N   0  0  0  0  0  0  0  0  0  0  0  0
    0.4320    6.9230   -7.4130 C   0  0  0  0  0  0  0  0  0  0  0  0
    0.1710    6.8500   -6.0490 C   0  0  0  0  0  0  0  0  0  0  0  0
    0.0730    8.0370   -5.3300 C   0  0  0  0  0  0  0  0  0  0  0  0
    0.2430    9.2710   -5.9990 C   0  0  0  0  0  0  0  0  0  0  0  0
    0.6010   12.9330   -7.9940 O   0  0  0  0  0  0  0  0  0  0  0  0
   -0.1850    7.9650   -3.9690 O   0  0  0  0  0  0  0  0  0  0  0  0
   -1.4220    7.4430   -3.4690 C   0  0  0  0  0  0  0  0  0  0  0  0
   -2.4260    8.5890   -3.4360 C   0  0  0  0  0  0  0  0  0  0  0  0
   -3.7950    8.1420   -2.9570 C   0  0  0  0  0  0  0  0  0  0  0  0
   -4.7430    8.9200   -3.6980 O   0  0  0  0  0  0  0  0  0  0  0  0
   -5.8490    8.1420   -4.1630 C   0  0  0  0  0  0  0  0  0  0  0  0
    0.1340   10.5440   -5.1780 C   0  0  0  0  0  0  0  0  0  0  0  0
  1  2  2  0
  1  6  1  0
  2  3  1  0
  2  9  1  0
  3  4  2  0
  3  7  1  0
  4  5  1  0
  5  6  2  0
  7  8  2  0
  8  9  1  0
  8 10  1  0
 10 11  1  0
 10 18  1  1
 11 12  1  0
 12 13  2  0
 12 17  1  0
 13 14  1  0
 14 15  2  0
 15 16  1  0
 16 17  2  0
 16 19  1  0
 17 25  1  0
 19 20  1  0
 20 21  1  0
 21 22  1  0
 22 23  1  0
 23 24  1  0
M  CHG  1  10   1
M  END
>  <_TriposChargeType>  (5) 
GAsT_HUCK

>  <PDB_ID>  (5) 
3pgl

$$$$
3pgl_ligand
     RDKit          3D

 25 27  0  0  0  0  0  0  0  0999 V2000
    3.4510   11.3720   -3.1790 C   0  0  0  0  0  0  0  0  0  0  0  0
    3.1650   11.7250   -4.4860 C   0  0  0  0  0  0  0  0  0  0  0  0
    3.8770   12.8740   -5.1010 C   0  0  0  0  0  0  0  0  0  0  0  0
    4.8200   13.5610   -4.3510 C   0  0  0  0  0  0  0  0  0  0  0  0
    5.0840   13.1730   -3.0410 C   0  0  0  0  0  0  0  0  0  0  0  0
    4.4040   12.1030   -2.4750 C   0  0  0  0  0  0  0  0  0  0  0  0
    3.4150   13.0050   -6.3620 N   0  0  0  0  0  0  0  0  0  0  0  0
    2.5100   12.0090   -6.4990 C   0  0  0  0  0  0  0  0  0  0  0  0
    2.3160   11.2310   -5.4170 N   0  0  0  0  0  0  0  0  0  0  0  0
    1.6520   11.8460   -7.9610 S   0  0  0  0  0  3  0  0  0  0  0  0
    0.7200   10.4400   -8.3270 C   0  0  0  0  0  0  0  0  0  0  0  0
    0.5200    9.2660   -7.3910 C   0  0  0  0  0  0  0  0  0  0  0  0
    0.5800    8.0950   -8.0410 N   0  0  0  0  0  0  0  0  0  0  0  0
    0.4320    6.9230   -7.4130 C   0  0  0  0  0  0  0  0  0  0  0  0
    0.1710    6.8500   -6.0490 C   0  0  0  0  0  0  0  0  0  0  0  0
    0.0730    8.0370   -5.3300 C   0  0  0  0  0  0  0  0  0  0  0  0
    0.2430    9.2710   -5.9990 C   0  0  0  0  0  0  0  0  0  0  0  0
    0.6010   12.9330   -7.9940 O   0  0  0  0  0  0  0  0  0  0  0  0
   -0.1850    7.9650   -3.9690 O   0  0  0  0  0  0  0  0  0  0  0  0
   -1.4220    7.4430   -3.4690 C   0  0  0  0  0  0  0  0  0  0  0  0
   -2.4260    8.5890   -3.4360 C   0  0  0  0  0  0  0  0  0  0  0  0
   -3.7950    8.1420   -2.9570 C   0  0  0  0  0  0  0  0  0  0  0  0
   -4.7430    8.9200   -3.6980 O   0  0  0  0  0  0  0  0  0  0  0  0
   -5.8490    8.1420   -4.1630 C   0  0  0  0  0  0  0  0  0  0  0  0
    0.1340   10.5440   -5.1780 C   0  0  0  0  0  0  0  0  0  0  0  0
  1  2  2  0
  1  6  1  0
  2  3  1  0
  2  9  1  0
  3  4  2  0
  3  7  1  0
  4  5  1  0
  5  6  2  0
  7  8  2  0
  8  9  1  0
  8 10  1  0
 10 11  1  0
 10 18  1  1
 11 12  1  0
 12 13  2  0
 12 17  1  0
 13 14  1  0
 14 15  2  0
 15 16  1  0
 16 17  2  0
 16 19  1  0
 17 25  1  0
 19 20  1  0
 20 21  1  0
 21 22  1  0
 22 23  1  0
 23 24  1  0
M  CHG  1  10   1
M  END
>  <_TriposChargeType>  (6) 
GAsT_HUCK

>  <PDB_ID>  (6) 
3pgl

$$$$
3pgl_ligand
     RDKit          3D

 25 27  0  0  0  0  0  0  0  0999 V2000
    3.4510   11.3720   -3.1790 C   0  0  0  0  0  0  0  0  0  0  0  0
    3.1650   11.7250   -4.4860 C   0  0  0  0  0  0  0  0  0  0  0  0
    3.8770   12.8740   -5.1010 C   0  0  0  0  0  0  0  0  0  0  0  0
    4.8200   13.5610   -4.3510 C   0  0  0  0  0  0  0  0  0  0  0  0
    5.0840   13.1730   -3.0410 C   0  0  0  0  0  0  0  0  0  0  0  0
    4.4040   12.1030   -2.4750 C   0  0  0  0  0  0  0  0  0  0  0  0
    3.4150   13.0050   -6.3620 N   0  0  0  0  0  0  0  0  0  0  0  0
    2.5100   12.0090   -6.4990 C   0  0  0  0  0  0  0  0  0  0  0  0
    2.3160   11.2310   -5.4170 N   0  0  0  0  0  0  0  0  0  0  0  0
    1.6520   11.8460   -7.9610 S   0  0  0  0  0  3  0  0  0  0  0  0
    0.7200   10.4400   -8.3270 C   0  0  0  0  0  0  0  0  0  0  0  0
    0.5200    9.2660   -7.3910 C   0  0  0  0  0  0  0  0  0  0  0  0
    0.5800    8.0950   -8.0410 N   0  0  0  0  0  0  0  0  0  0  0  0
    0.4320    6.9230   -7.4130 C   0  0  0  0  0  0  0  0  0  0  0  0
    0.1710    6.8500   -6.0490 C   0  0  0  0  0  0  0  0  0  0  0  0
    0.0730    8.0370   -5.3300 C   0  0  0  0  0  0  0  0  0  0  0  0
    0.2430    9.2710   -5.9990 C   0  0  0  0  0  0  0  0  0  0  0  0
    0.6010   12.9330   -7.9940 O   0  0  0  0  0  0  0  0  0  0  0  0
   -0.1850    7.9650   -3.9690 O   0  0  0  0  0  0  0  0  0  0  0  0
   -1.4220    7.4430   -3.4690 C   0  0  0  0  0  0  0  0  0  0  0  0
   -2.4260    8.5890   -3.4360 C   0  0  0  0  0  0  0  0  0  0  0  0
   -3.7950    8.1420   -2.9570 C   0  0  0  0  0  0  0  0  0  0  0  0
   -4.7430    8.9200   -3.6980 O   0  0  0  0  0  0  0  0  0  0  0  0
   -5.8490    8.1420   -4.1630 C   0  0  0  0  0  0  0  0  0  0  0  0
    0.1340   10.5440   -5.1780 C   0  0  0  0  0  0  0  0  0  0  0  0
  1  2  2  0
  1  6  1  0
  2  3  1  0
  2  9  1  0
  3  4  2  0
  3  7  1  0
  4  5  1  0
  5  6  2  0
  7  8  2  0
  8  9  1  0
  8 10  1  0
 10 11  1  0
 10 18  1  1
 11 12  1  0
 12 13  2  0
 12 17  1  0
 13 14  1  0
 14 15  2  0
 15 16  1  0
 16 17  2  0
 16 19  1  0
 17 25  1  0
 19 20  1  0
 20 21  1  0
 21 22  1  0
 22 23  1  0
 23 24  1  0
M  CHG  1  10   1
M  END
>  <_TriposChargeType>  (7) 
GAsT_HUCK

>  <PDB_ID>  (7) 
3pgl

$$$$
3pgl_ligand
     RDKit          3D

 25 27  0  0  0  0  0  0  0  0999 V2000
    3.4510   11.3720   -3.1790 C   0  0  0  0  0  0  0  0  0  0  0  0
    3.1650   11.7250   -4.4860 C   0  0  0  0  0  0  0  0  0  0  0  0
    3.8770   12.8740   -5.1010 C   0  0  0  0  0  0  0  0  0  0  0  0
    4.8200   13.5610   -4.3510 C   0  0  0  0  0  0  0  0  0  0  0  0
    5.0840   13.1730   -3.0410 C   0  0  0  0  0  0  0  0  0  0  0  0
    4.4040   12.1030   -2.4750 C   0  0  0  0  0  0  0  0  0  0  0  0
    3.4150   13.0050   -6.3620 N   0  0  0  0  0  0  0  0  0  0  0  0
    2.5100   12.0090   -6.4990 C   0  0  0  0  0  0  0  0  0  0  0  0
    2.3160   11.2310   -5.4170 N   0  0  0  0  0  0  0  0  0  0  0  0
    1.6520   11.8460   -7.9610 S   0  0  0  0  0  3  0  0  0  0  0  0
    0.7200   10.4400   -8.3270 C   0  0  0  0  0  0  0  0  0  0  0  0
    0.5200    9.2660   -7.3910 C   0  0  0  0  0  0  0  0  0  0  0  0
    0.5800    8.0950   -8.0410 N   0  0  0  0  0  0  0  0  0  0  0  0
    0.4320    6.9230   -7.4130 C   0  0  0  0  0  0  0  0  0  0  0  0
    0.1710    6.8500   -6.0490 C   0  0  0  0  0  0  0  0  0  0  0  0
    0.0730    8.0370   -5.3300 C   0  0  0  0  0  0  0  0  0  0  0  0
    0.2430    9.2710   -5.9990 C   0  0  0  0  0  0  0  0  0  0  0  0
    0.6010   12.9330   -7.9940 O   0  0  0  0  0  0  0  0  0  0  0  0
   -0.1850    7.9650   -3.9690 O   0  0  0  0  0  0  0  0  0  0  0  0
   -1.4220    7.4430   -3.4690 C   0  0  0  0  0  0  0  0  0  0  0  0
   -2.4260    8.5890   -3.4360 C   0  0  0  0  0  0  0  0  0  0  0  0
   -3.7950    8.1420   -2.9570 C   0  0  0  0  0  0  0  0  0  0  0  0
   -4.7430    8.9200   -3.6980 O   0  0  0  0  0  0  0  0  0  0  0  0
   -5.8490    8.1420   -4.1630 C   0  0  0  0  0  0  0  0  0  0  0  0
    0.1340   10.5440   -5.1780 C   0  0  0  0  0  0  0  0  0  0  0  0
  1  2  2  0
  1  6  1  0
  2  3  1  0
  2  9  1  0
  3  4  2  0
  3  7  1  0
  4  5  1  0
  5  6  2  0
  7  8  2  0
  8  9  1  0
  8 10  1  0
 10 11  1  0
 10 18  1  1
 11 12  1  0
 12 13  2  0
 12 17  1  0
 13 14  1  0
 14 15  2  0
 15 16  1  0
 16 17  2  0
 16 19  1  0
 17 25  1  0
 19 20  1  0
 20 21  1  0
 21 22  1  0
 22 23  1  0
 23 24  1  0
M  CHG  1  10   1
M  END
>  <_TriposChargeType>  (8) 
GAsT_HUCK

>  <PDB_ID>  (8) 
3pgl

$$$$
3pgl_ligand
     RDKit          3D

 25 27  0  0  0  0  0  0  0  0999 V2000
    3.4510   11.3720   -3.1790 C   0  0  0  0  0  0  0  0  0  0  0  0
    3.1650   11.7250   -4.4860 C   0  0  0  0  0  0  0  0  0  0  0  0
    3.8770   12.8740   -5.1010 C   0  0  0  0  0  0  0  0  0  0  0  0
    4.8200   13.5610   -4.3510 C   0  0  0  0  0  0  0  0  0  0  0  0
    5.0840   13.1730   -3.0410 C   0  0  0  0  0  0  0  0  0  0  0  0
    4.4040   12.1030   -2.4750 C   0  0  0  0  0  0  0  0  0  0  0  0
    3.4150   13.0050   -6.3620 N   0  0  0  0  0  0  0  0  0  0  0  0
    2.5100   12.0090   -6.4990 C   0  0  0  0  0  0  0  0  0  0  0  0
    2.3160   11.2310   -5.4170 N   0  0  0  0  0  0  0  0  0  0  0  0
    1.6520   11.8460   -7.9610 S   0  0  0  0  0  3  0  0  0  0  0  0
    0.7200   10.4400   -8.3270 C   0  0  0  0  0  0  0  0  0  0  0  0
    0.5200    9.2660   -7.3910 C   0  0  0  0  0  0  0  0  0  0  0  0
    0.5800    8.0950   -8.0410 N   0  0  0  0  0  0  0  0  0  0  0  0
    0.4320    6.9230   -7.4130 C   0  0  0  0  0  0  0  0  0  0  0  0
    0.1710    6.8500   -6.0490 C   0  0  0  0  0  0  0  0  0  0  0  0
    0.0730    8.0370   -5.3300 C   0  0  0  0  0  0  0  0  0  0  0  0
    0.2430    9.2710   -5.9990 C   0  0  0  0  0  0  0  0  0  0  0  0
    0.6010   12.9330   -7.9940 O   0  0  0  0  0  0  0  0  0  0  0  0
   -0.1850    7.9650   -3.9690 O   0  0  0  0  0  0  0  0  0  0  0  0
   -1.4220    7.4430   -3.4690 C   0  0  0  0  0  0  0  0  0  0  0  0
   -2.4260    8.5890   -3.4360 C   0  0  0  0  0  0  0  0  0  0  0  0
   -3.7950    8.1420   -2.9570 C   0  0  0  0  0  0  0  0  0  0  0  0
   -4.7430    8.9200   -3.6980 O   0  0  0  0  0  0  0  0  0  0  0  0
   -5.8490    8.1420   -4.1630 C   0  0  0  0  0  0  0  0  0  0  0  0
    0.1340   10.5440   -5.1780 C   0  0  0  0  0  0  0  0  0  0  0  0
  1  2  2  0
  1  6  1  0
  2  3  1  0
  2  9  1  0
  3  4  2  0
  3  7  1  0
  4  5  1  0
  5  6  2  0
  7  8  2  0
  8  9  1  0
  8 10  1  0
 10 11  1  0
 10 18  1  1
 11 12  1  0
 12 13  2  0
 12 17  1  0
 13 14  1  0
 14 15  2  0
 15 16  1  0
 16 17  2  0
 16 19  1  0
 17 25  1  0
 19 20  1  0
 20 21  1  0
 21 22  1  0
 22 23  1  0
 23 24  1  0
M  CHG  1  10   1
M  END
>  <_TriposChargeType>  (9) 
GAsT_HUCK

>  <PDB_ID>  (9) 
3pgl

$$$$
3pgl_ligand
     RDKit          3D

 25 27  0  0  0  0  0  0  0  0999 V2000
    3.4510   11.3720   -3.1790 C   0  0  0  0  0  0  0  0  0  0  0  0
    3.1650   11.7250   -4.4860 C   0  0  0  0  0  0  0  0  0  0  0  0
    3.8770   12.8740   -5.1010 C   0  0  0  0  0  0  0  0  0  0  0  0
    4.8200   13.5610   -4.3510 C   0  0  0  0  0  0  0  0  0  0  0  0
    5.0840   13.1730   -3.0410 C   0  0  0  0  0  0  0  0  0  0  0  0
    4.4040   12.1030   -2.4750 C   0  0  0  0  0  0  0  0  0  0  0  0
    3.4150   13.0050   -6.3620 N   0  0  0  0  0  0  0  0  0  0  0  0
    2.5100   12.0090   -6.4990 C   0  0  0  0  0  0  0  0  0  0  0  0
    2.3160   11.2310   -5.4170 N   0  0  0  0  0  0  0  0  0  0  0  0
    1.6520   11.8460   -7.9610 S   0  0  0  0  0  3  0  0  0  0  0  0
    0.7200   10.4400   -8.3270 C   0  0  0  0  0  0  0  0  0  0  0  0
    0.5200    9.2660   -7.3910 C   0  0  0  0  0  0  0  0  0  0  0  0
    0.5800    8.0950   -8.0410 N   0  0  0  0  0  0  0  0  0  0  0  0
    0.4320    6.9230   -7.4130 C   0  0  0  0  0  0  0  0  0  0  0  0
    0.1710    6.8500   -6.0490 C   0  0  0  0  0  0  0  0  0  0  0  0
    0.0730    8.0370   -5.3300 C   0  0  0  0  0  0  0  0  0  0  0  0
    0.2430    9.2710   -5.9990 C   0  0  0  0  0  0  0  0  0  0  0  0
    0.6010   12.9330   -7.9940 O   0  0  0  0  0  0  0  0  0  0  0  0
   -0.1850    7.9650   -3.9690 O   0  0  0  0  0  0  0  0  0  0  0  0
   -1.4220    7.4430   -3.4690 C   0  0  0  0  0  0  0  0  0  0  0  0
   -2.4260    8.5890   -3.4360 C   0  0  0  0  0  0  0  0  0  0  0  0
   -3.7950    8.1420   -2.9570 C   0  0  0  0  0  0  0  0  0  0  0  0
   -4.7430    8.9200   -3.6980 O   0  0  0  0  0  0  0  0  0  0  0  0
   -5.8490    8.1420   -4.1630 C   0  0  0  0  0  0  0  0  0  0  0  0
    0.1340   10.5440   -5.1780 C   0  0  0  0  0  0  0  0  0  0  0  0
  1  2  2  0
  1  6  1  0
  2  3  1  0
  2  9  1  0
  3  4  2  0
  3  7  1  0
  4  5  1  0
  5  6  2  0
  7  8  2  0
  8  9  1  0
  8 10  1  0
 10 11  1  0
 10 18  1  1
 11 12  1  0
 12 13  2  0
 12 17  1  0
 13 14  1  0
 14 15  2  0
 15 16  1  0
 16 17  2  0
 16 19  1  0
 17 25  1  0
 19 20  1  0
 20 21  1  0
 21 22  1  0
 22 23  1  0
 23 24  1  0
M  CHG  1  10   1
M  END
>  <_TriposChargeType>  (10) 
GAsT_HUCK

>  <PDB_ID>  (10) 
3pgl

$$$$
3pgl_ligand
     RDKit          3D

 25 27  0  0  0  0  0  0  0  0999 V2000
    3.4510   11.3720   -3.1790 C   0  0  0  0  0  0  0  0  0  0  0  0
    3.1650   11.7250   -4.4860 C   0  0  0  0  0  0  0  0  0  0  0  0
    3.8770   12.8740   -5.1010 C   0  0  0  0  0  0  0  0  0  0  0  0
    4.8200   13.5610   -4.3510 C   0  0  0  0  0  0  0  0  0  0  0  0
    5.0840   13.1730   -3.0410 C   0  0  0  0  0  0  0  0  0  0  0  0
    4.4040   12.1030   -2.4750 C   0  0  0  0  0  0  0  0  0  0  0  0
    3.4150   13.0050   -6.3620 N   0  0  0  0  0  0  0  0  0  0  0  0
    2.5100   12.0090   -6.4990 C   0  0  0  0  0  0  0  0  0  0  0  0
    2.3160   11.2310   -5.4170 N   0  0  0  0  0  0  0  0  0  0  0  0
    1.6520   11.8460   -7.9610 S   0  0  0  0  0  3  0  0  0  0  0  0
    0.7200   10.4400   -8.3270 C   0  0  0  0  0  0  0  0  0  0  0  0
    0.5200    9.2660   -7.3910 C   0  0  0  0  0  0  0  0  0  0  0  0
    0.5800    8.0950   -8.0410 N   0  0  0  0  0  0  0  0  0  0  0  0
    0.4320    6.9230   -7.4130 C   0  0  0  0  0  0  0  0  0  0  0  0
    0.1710    6.8500   -6.0490 C   0  0  0  0  0  0  0  0  0  0  0  0
    0.0730    8.0370   -5.3300 C   0  0  0  0  0  0  0  0  0  0  0  0
    0.2430    9.2710   -5.9990 C   0  0  0  0  0  0  0  0  0  0  0  0
    0.6010   12.9330   -7.9940 O   0  0  0  0  0  0  0  0  0  0  0  0
   -0.1850    7.9650   -3.9690 O   0  0  0  0  0  0  0  0  0  0  0  0
   -1.4220    7.4430   -3.4690 C   0  0  0  0  0  0  0  0  0  0  0  0
   -2.4260    8.5890   -3.4360 C   0  0  0  0  0  0  0  0  0  0  0  0
   -3.7950    8.1420   -2.9570 C   0  0  0  0  0  0  0  0  0  0  0  0
   -4.7430    8.9200   -3.6980 O   0  0  0  0  0  0  0  0  0  0  0  0
   -5.8490    8.1420   -4.1630 C   0  0  0  0  0  0  0  0  0  0  0  0
    0.1340   10.5440   -5.1780 C   0  0  0  0  0  0  0  0  0  0  0  0
  1  2  2  0
  1  6  1  0
  2  3  1  0
  2  9  1  0
  3  4  2  0
  3  7  1  0
  4  5  1  0
  5  6  2  0
  7  8  2  0
  8  9  1  0
  8 10  1  0
 10 11  1  0
 10 18  1  1
 11 12  1  0
 12 13  2  0
 12 17  1  0
 13 14  1  0
 14 15  2  0
 15 16  1  0
 16 17  2  0
 16 19  1  0
 17 25  1  0
 19 20  1  0
 20 21  1  0
 21 22  1  0
 22 23  1  0
 23 24  1  0
M  CHG  1  10   1
M  END
>  <_TriposChargeType>  (11) 
GAsT_HUCK

>  <PDB_ID>  (11) 
3pgl

$$$$
3pgl_ligand
     RDKit          3D

 25 27  0  0  0  0  0  0  0  0999 V2000
    3.4510   11.3720   -3.1790 C   0  0  0  0  0  0  0  0  0  0  0  0
    3.1650   11.7250   -4.4860 C   0  0  0  0  0  0  0  0  0  0  0  0
    3.8770   12.8740   -5.1010 C   0  0  0  0  0  0  0  0  0  0  0  0
    4.8200   13.5610   -4.3510 C   0  0  0  0  0  0  0  0  0  0  0  0
    5.0840   13.1730   -3.0410 C   0  0  0  0  0  0  0  0  0  0  0  0
    4.4040   12.1030   -2.4750 C   0  0  0  0  0  0  0  0  0  0  0  0
    3.4150   13.0050   -6.3620 N   0  0  0  0  0  0  0  0  0  0  0  0
    2.5100   12.0090   -6.4990 C   0  0  0  0  0  0  0  0  0  0  0  0
    2.3160   11.2310   -5.4170 N   0  0  0  0  0  0  0  0  0  0  0  0
    1.6520   11.8460   -7.9610 S   0  0  0  0  0  3  0  0  0  0  0  0
    0.7200   10.4400   -8.3270 C   0  0  0  0  0  0  0  0  0  0  0  0
    0.5200    9.2660   -7.3910 C   0  0  0  0  0  0  0  0  0  0  0  0
    0.5800    8.0950   -8.0410 N   0  0  0  0  0  0  0  0  0  0  0  0
    0.4320    6.9230   -7.4130 C   0  0  0  0  0  0  0  0  0  0  0  0
    0.1710    6.8500   -6.0490 C   0  0  0  0  0  0  0  0  0  0  0  0
    0.0730    8.0370   -5.3300 C   0  0  0  0  0  0  0  0  0  0  0  0
    0.2430    9.2710   -5.9990 C   0  0  0  0  0  0  0  0  0  0  0  0
    0.6010   12.9330   -7.9940 O   0  0  0  0  0  0  0  0  0  0  0  0
   -0.1850    7.9650   -3.9690 O   0  0  0  0  0  0  0  0  0  0  0  0
   -1.4220    7.4430   -3.4690 C   0  0  0  0  0  0  0  0  0  0  0  0
   -2.4260    8.5890   -3.4360 C   0  0  0  0  0  0  0  0  0  0  0  0
   -3.7950    8.1420   -2.9570 C   0  0  0  0  0  0  0  0  0  0  0  0
   -4.7430    8.9200   -3.6980 O   0  0  0  0  0  0  0  0  0  0  0  0
   -5.8490    8.1420   -4.1630 C   0  0  0  0  0  0  0  0  0  0  0  0
    0.1340   10.5440   -5.1780 C   0  0  0  0  0  0  0  0  0  0  0  0
  1  2  2  0
  1  6  1  0
  2  3  1  0
  2  9  1  0
  3  4  2  0
  3  7  1  0
  4  5  1  0
  5  6  2  0
  7  8  2  0
  8  9  1  0
  8 10  1  0
 10 11  1  0
 10 18  1  1
 11 12  1  0
 12 13  2  0
 12 17  1  0
 13 14  1  0
 14 15  2  0
 15 16  1  0
 16 17  2  0
 16 19  1  0
 17 25  1  0
 19 20  1  0
 20 21  1  0
 21 22  1  0
 22 23  1  0
 23 24  1  0
M  CHG  1  10   1
M  END
>  <_TriposChargeType>  (12) 
GAsT_HUCK

>  <PDB_ID>  (12) 
3pgl

$$$$
3pgl_ligand
     RDKit          3D

 25 27  0  0  0  0  0  0  0  0999 V2000
    3.4510   11.3720   -3.1790 C   0  0  0  0  0  0  0  0  0  0  0  0
    3.1650   11.7250   -4.4860 C   0  0  0  0  0  0  0  0  0  0  0  0
    3.8770   12.8740   -5.1010 C   0  0  0  0  0  0  0  0  0  0  0  0
    4.8200   13.5610   -4.3510 C   0  0  0  0  0  0  0  0  0  0  0  0
    5.0840   13.1730   -3.0410 C   0  0  0  0  0  0  0  0  0  0  0  0
    4.4040   12.1030   -2.4750 C   0  0  0  0  0  0  0  0  0  0  0  0
    3.4150   13.0050   -6.3620 N   0  0  0  0  0  0  0  0  0  0  0  0
    2.5100   12.0090   -6.4990 C   0  0  0  0  0  0  0  0  0  0  0  0
    2.3160   11.2310   -5.4170 N   0  0  0  0  0  0  0  0  0  0  0  0
    1.6520   11.8460   -7.9610 S   0  0  0  0  0  3  0  0  0  0  0  0
    0.7200   10.4400   -8.3270 C   0  0  0  0  0  0  0  0  0  0  0  0
    0.5200    9.2660   -7.3910 C   0  0  0  0  0  0  0  0  0  0  0  0
    0.5800    8.0950   -8.0410 N   0  0  0  0  0  0  0  0  0  0  0  0
    0.4320    6.9230   -7.4130 C   0  0  0  0  0  0  0  0  0  0  0  0
    0.1710    6.8500   -6.0490 C   0  0  0  0  0  0  0  0  0  0  0  0
    0.0730    8.0370   -5.3300 C   0  0  0  0  0  0  0  0  0  0  0  0
    0.2430    9.2710   -5.9990 C   0  0  0  0  0  0  0  0  0  0  0  0
    0.6010   12.9330   -7.9940 O   0  0  0  0  0  0  0  0  0  0  0  0
   -0.1850    7.9650   -3.9690 O   0  0  0  0  0  0  0  0  0  0  0  0
   -1.4220    7.4430   -3.4690 C   0  0  0  0  0  0  0  0  0  0  0  0
   -2.4260    8.5890   -3.4360 C   0  0  0  0  0  0  0  0  0  0  0  0
   -3.7950    8.1420   -2.9570 C   0  0  0  0  0  0  0  0  0  0  0  0
   -4.7430    8.9200   -3.6980 O   0  0  0  0  0  0  0  0  0  0  0  0
   -5.8490    8.1420   -4.1630 C   0  0  0  0  0  0  0  0  0  0  0  0
    0.1340   10.5440   -5.1780 C   0  0  0  0  0  0  0  0  0  0  0  0
  1  2  2  0
  1  6  1  0
  2  3  1  0
  2  9  1  0
  3  4  2  0
  3  7  1  0
  4  5  1  0
  5  6  2  0
  7  8  2  0
  8  9  1  0
  8 10  1  0
 10 11  1  0
 10 18  1  1
 11 12  1  0
 12 13  2  0
 12 17  1  0
 13 14  1  0
 14 15  2  0
 15 16  1  0
 16 17  2  0
 16 19  1  0
 17 25  1  0
 19 20  1  0
 20 21  1  0
 21 22  1  0
 22 23  1  0
 23 24  1  0
M  CHG  1  10   1
M  END
>  <_TriposChargeType>  (13) 
GAsT_HUCK

>  <PDB_ID>  (13) 
3pgl

$$$$
3pgl_ligand
     RDKit          3D

 25 27  0  0  0  0  0  0  0  0999 V2000
    3.4510   11.3720   -3.1790 C   0  0  0  0  0  0  0  0  0  0  0  0
    3.1650   11.7250   -4.4860 C   0  0  0  0  0  0  0  0  0  0  0  0
    3.8770   12.8740   -5.1010 C   0  0  0  0  0  0  0  0  0  0  0  0
    4.8200   13.5610   -4.3510 C   0  0  0  0  0  0  0  0  0  0  0  0
    5.0840   13.1730   -3.0410 C   0  0  0  0  0  0  0  0  0  0  0  0
    4.4040   12.1030   -2.4750 C   0  0  0  0  0  0  0  0  0  0  0  0
    3.4150   13.0050   -6.3620 N   0  0  0  0  0  0  0  0  0  0  0  0
    2.5100   12.0090   -6.4990 C   0  0  0  0  0  0  0  0  0  0  0  0
    2.3160   11.2310   -5.4170 N   0  0  0  0  0  0  0  0  0  0  0  0
    1.6520   11.8460   -7.9610 S   0  0  0  0  0  3  0  0  0  0  0  0
    0.7200   10.4400   -8.3270 C   0  0  0  0  0  0  0  0  0  0  0  0
    0.5200    9.2660   -7.3910 C   0  0  0  0  0  0  0  0  0  0  0  0
    0.5800    8.0950   -8.0410 N   0  0  0  0  0  0  0  0  0  0  0  0
    0.4320    6.9230   -7.4130 C   0  0  0  0  0  0  0  0  0  0  0  0
    0.1710    6.8500   -6.0490 C   0  0  0  0  0  0  0  0  0  0  0  0
    0.0730    8.0370   -5.3300 C   0  0  0  0  0  0  0  0  0  0  0  0
    0.2430    9.2710   -5.9990 C   0  0  0  0  0  0  0  0  0  0  0  0
    0.6010   12.9330   -7.9940 O   0  0  0  0  0  0  0  0  0  0  0  0
   -0.1850    7.9650   -3.9690 O   0  0  0  0  0  0  0  0  0  0  0  0
   -1.4220    7.4430   -3.4690 C   0  0  0  0  0  0  0  0  0  0  0  0
   -2.4260    8.5890   -3.4360 C   0  0  0  0  0  0  0  0  0  0  0  0
   -3.7950    8.1420   -2.9570 C   0  0  0  0  0  0  0  0  0  0  0  0
   -4.7430    8.9200   -3.6980 O   0  0  0  0  0  0  0  0  0  0  0  0
   -5.8490    8.1420   -4.1630 C   0  0  0  0  0  0  0  0  0  0  0  0
    0.1340   10.5440   -5.1780 C   0  0  0  0  0  0  0  0  0  0  0  0
  1  2  2  0
  1  6  1  0
  2  3  1  0
  2  9  1  0
  3  4  2  0
  3  7  1  0
  4  5  1  0
  5  6  2  0
  7  8  2  0
  8  9  1  0
  8 10  1  0
 10 11  1  0
 10 18  1  1
 11 12  1  0
 12 13  2  0
 12 17  1  0
 13 14  1  0
 14 15  2  0
 15 16  1  0
 16 17  2  0
 16 19  1  0
 17 25  1  0
 19 20  1  0
 20 21  1  0
 21 22  1  0
 22 23  1  0
 23 24  1  0
M  CHG  1  10   1
M  END
>  <_TriposChargeType>  (14) 
GAsT_HUCK

>  <PDB_ID>  (14) 
3pgl

$$$$
3pgl_ligand
     RDKit          3D

 25 27  0  0  0  0  0  0  0  0999 V2000
    3.4510   11.3720   -3.1790 C   0  0  0  0  0  0  0  0  0  0  0  0
    3.1650   11.7250   -4.4860 C   0  0  0  0  0  0  0  0  0  0  0  0
    3.8770   12.8740   -5.1010 C   0  0  0  0  0  0  0  0  0  0  0  0
    4.8200   13.5610   -4.3510 C   0  0  0  0  0  0  0  0  0  0  0  0
    5.0840   13.1730   -3.0410 C   0  0  0  0  0  0  0  0  0  0  0  0
    4.4040   12.1030   -2.4750 C   0  0  0  0  0  0  0  0  0  0  0  0
    3.4150   13.0050   -6.3620 N   0  0  0  0  0  0  0  0  0  0  0  0
    2.5100   12.0090   -6.4990 C   0  0  0  0  0  0  0  0  0  0  0  0
    2.3160   11.2310   -5.4170 N   0  0  0  0  0  0  0  0  0  0  0  0
    1.6520   11.8460   -7.9610 S   0  0  0  0  0  3  0  0  0  0  0  0
    0.7200   10.4400   -8.3270 C   0  0  0  0  0  0  0  0  0  0  0  0
    0.5200    9.2660   -7.3910 C   0  0  0  0  0  0  0  0  0  0  0  0
    0.5800    8.0950   -8.0410 N   0  0  0  0  0  0  0  0  0  0  0  0
    0.4320    6.9230   -7.4130 C   0  0  0  0  0  0  0  0  0  0  0  0
    0.1710    6.8500   -6.0490 C   0  0  0  0  0  0  0  0  0  0  0  0
    0.0730    8.0370   -5.3300 C   0  0  0  0  0  0  0  0  0  0  0  0
    0.2430    9.2710   -5.9990 C   0  0  0  0  0  0  0  0  0  0  0  0
    0.6010   12.9330   -7.9940 O   0  0  0  0  0  0  0  0  0  0  0  0
   -0.1850    7.9650   -3.9690 O   0  0  0  0  0  0  0  0  0  0  0  0
   -1.4220    7.4430   -3.4690 C   0  0  0  0  0  0  0  0  0  0  0  0
   -2.4260    8.5890   -3.4360 C   0  0  0  0  0  0  0  0  0  0  0  0
   -3.7950    8.1420   -2.9570 C   0  0  0  0  0  0  0  0  0  0  0  0
   -4.7430    8.9200   -3.6980 O   0  0  0  0  0  0  0  0  0  0  0  0
   -5.8490    8.1420   -4.1630 C   0  0  0  0  0  0  0  0  0  0  0  0
    0.1340   10.5440   -5.1780 C   0  0  0  0  0  0  0  0  0  0  0  0
  1  2  2  0
  1  6  1  0
  2  3  1  0
  2  9  1  0
  3  4  2  0
  3  7  1  0
  4  5  1  0
  5  6  2  0
  7  8  2  0
  8  9  1  0
  8 10  1  0
 10 11  1  0
 10 18  1  1
 11 12  1  0
 12 13  2  0
 12 17  1  0
 13 14  1  0
 14 15  2  0
 15 16  1  0
 16 17  2  0
 16 19  1  0
 17 25  1  0
 19 20  1  0
 20 21  1  0
 21 22  1  0
 22 23  1  0
 23 24  1  0
M  CHG  1  10   1
M  END
>  <_TriposChargeType>  (15) 
GAsT_HUCK

>  <PDB_ID>  (15) 
3pgl

$$$$
3pgl_ligand
     RDKit          3D

 25 27  0  0  0  0  0  0  0  0999 V2000
    3.4510   11.3720   -3.1790 C   0  0  0  0  0  0  0  0  0  0  0  0
    3.1650   11.7250   -4.4860 C   0  0  0  0  0  0  0  0  0  0  0  0
    3.8770   12.8740   -5.1010 C   0  0  0  0  0  0  0  0  0  0  0  0
    4.8200   13.5610   -4.3510 C   0  0  0  0  0  0  0  0  0  0  0  0
    5.0840   13.1730   -3.0410 C   0  0  0  0  0  0  0  0  0  0  0  0
    4.4040   12.1030   -2.4750 C   0  0  0  0  0  0  0  0  0  0  0  0
    3.4150   13.0050   -6.3620 N   0  0  0  0  0  0  0  0  0  0  0  0
    2.5100   12.0090   -6.4990 C   0  0  0  0  0  0  0  0  0  0  0  0
    2.3160   11.2310   -5.4170 N   0  0  0  0  0  0  0  0  0  0  0  0
    1.6520   11.8460   -7.9610 S   0  0  0  0  0  3  0  0  0  0  0  0
    0.7200   10.4400   -8.3270 C   0  0  0  0  0  0  0  0  0  0  0  0
    0.5200    9.2660   -7.3910 C   0  0  0  0  0  0  0  0  0  0  0  0
    0.5800    8.0950   -8.0410 N   0  0  0  0  0  0  0  0  0  0  0  0
    0.4320    6.9230   -7.4130 C   0  0  0  0  0  0  0  0  0  0  0  0
    0.1710    6.8500   -6.0490 C   0  0  0  0  0  0  0  0  0  0  0  0
    0.0730    8.0370   -5.3300 C   0  0  0  0  0  0  0  0  0  0  0  0
    0.2430    9.2710   -5.9990 C   0  0  0  0  0  0  0  0  0  0  0  0
    0.6010   12.9330   -7.9940 O   0  0  0  0  0  0  0  0  0  0  0  0
   -0.1850    7.9650   -3.9690 O   0  0  0  0  0  0  0  0  0  0  0  0
   -1.4220    7.4430   -3.4690 C   0  0  0  0  0  0  0  0  0  0  0  0
   -2.4260    8.5890   -3.4360 C   0  0  0  0  0  0  0  0  0  0  0  0
   -3.7950    8.1420   -2.9570 C   0  0  0  0  0  0  0  0  0  0  0  0
   -4.7430    8.9200   -3.6980 O   0  0  0  0  0  0  0  0  0  0  0  0
   -5.8490    8.1420   -4.1630 C   0  0  0  0  0  0  0  0  0  0  0  0
    0.1340   10.5440   -5.1780 C   0  0  0  0  0  0  0  0  0  0  0  0
  1  2  2  0
  1  6  1  0
  2  3  1  0
  2  9  1  0
  3  4  2  0
  3  7  1  0
  4  5  1  0
  5  6  2  0
  7  8  2  0
  8  9  1  0
  8 10  1  0
 10 11  1  0
 10 18  1  1
 11 12  1  0
 12 13  2  0
 12 17  1  0
 13 14  1  0
 14 15  2  0
 15 16  1  0
 16 17  2  0
 16 19  1  0
 17 25  1  0
 19 20  1  0
 20 21  1  0
 21 22  1  0
 22 23  1  0
 23 24  1  0
M  CHG  1  10   1
M  END
>  <_TriposChargeType>  (16) 
GAsT_HUCK

>  <PDB_ID>  (16) 
3pgl

$$$$
3pgl_ligand
     RDKit          3D

 25 27  0  0  0  0  0  0  0  0999 V2000
    3.4510   11.3720   -3.1790 C   0  0  0  0  0  0  0  0  0  0  0  0
    3.1650   11.7250   -4.4860 C   0  0  0  0  0  0  0  0  0  0  0  0
    3.8770   12.8740   -5.1010 C   0  0  0  0  0  0  0  0  0  0  0  0
    4.8200   13.5610   -4.3510 C   0  0  0  0  0  0  0  0  0  0  0  0
    5.0840   13.1730   -3.0410 C   0  0  0  0  0  0  0  0  0  0  0  0
    4.4040   12.1030   -2.4750 C   0  0  0  0  0  0  0  0  0  0  0  0
    3.4150   13.0050   -6.3620 N   0  0  0  0  0  0  0  0  0  0  0  0
    2.5100   12.0090   -6.4990 C   0  0  0  0  0  0  0  0  0  0  0  0
    2.3160   11.2310   -5.4170 N   0  0  0  0  0  0  0  0  0  0  0  0
    1.6520   11.8460   -7.9610 S   0  0  0  0  0  3  0  0  0  0  0  0
    0.7200   10.4400   -8.3270 C   0  0  0  0  0  0  0  0  0  0  0  0
    0.5200    9.2660   -7.3910 C   0  0  0  0  0  0  0  0  0  0  0  0
    0.5800    8.0950   -8.0410 N   0  0  0  0  0  0  0  0  0  0  0  0
    0.4320    6.9230   -7.4130 C   0  0  0  0  0  0  0  0  0  0  0  0
    0.1710    6.8500   -6.0490 C   0  0  0  0  0  0  0  0  0  0  0  0
    0.0730    8.0370   -5.3300 C   0  0  0  0  0  0  0  0  0  0  0  0
    0.2430    9.2710   -5.9990 C   0  0  0  0  0  0  0  0  0  0  0  0
    0.6010   12.9330   -7.9940 O   0  0  0  0  0  0  0  0  0  0  0  0
   -0.1850    7.9650   -3.9690 O   0  0  0  0  0  0  0  0  0  0  0  0
   -1.4220    7.4430   -3.4690 C   0  0  0  0  0  0  0  0  0  0  0  0
   -2.4260    8.5890   -3.4360 C   0  0  0  0  0  0  0  0  0  0  0  0
   -3.7950    8.1420   -2.9570 C   0  0  0  0  0  0  0  0  0  0  0  0
   -4.7430    8.9200   -3.6980 O   0  0  0  0  0  0  0  0  0  0  0  0
   -5.8490    8.1420   -4.1630 C   0  0  0  0  0  0  0  0  0  0  0  0
    0.1340   10.5440   -5.1780 C   0  0  0  0  0  0  0  0  0  0  0  0
  1  2  2  0
  1  6  1  0
  2  3  1  0
  2  9  1  0
  3  4  2  0
  3  7  1  0
  4  5  1  0
  5  6  2  0
  7  8  2  0
  8  9  1  0
  8 10  1  0
 10 11  1  0
 10 18  1  1
 11 12  1  0
 12 13  2  0
 12 17  1  0
 13 14  1  0
 14 15  2  0
 15 16  1  0
 16 17  2  0
 16 19  1  0
 17 25  1  0
 19 20  1  0
 20 21  1  0
 21 22  1  0
 22 23  1  0
 23 24  1  0
M  CHG  1  10   1
M  END
>  <_TriposChargeType>  (17) 
GAsT_HUCK

>  <PDB_ID>  (17) 
3pgl

$$$$
3pgl_ligand
     RDKit          3D

 25 27  0  0  0  0  0  0  0  0999 V2000
    3.4510   11.3720   -3.1790 C   0  0  0  0  0  0  0  0  0  0  0  0
    3.1650   11.7250   -4.4860 C   0  0  0  0  0  0  0  0  0  0  0  0
    3.8770   12.8740   -5.1010 C   0  0  0  0  0  0  0  0  0  0  0  0
    4.8200   13.5610   -4.3510 C   0  0  0  0  0  0  0  0  0  0  0  0
    5.0840   13.1730   -3.0410 C   0  0  0  0  0  0  0  0  0  0  0  0
    4.4040   12.1030   -2.4750 C   0  0  0  0  0  0  0  0  0  0  0  0
    3.4150   13.0050   -6.3620 N   0  0  0  0  0  0  0  0  0  0  0  0
    2.5100   12.0090   -6.4990 C   0  0  0  0  0  0  0  0  0  0  0  0
    2.3160   11.2310   -5.4170 N   0  0  0  0  0  0  0  0  0  0  0  0
    1.6520   11.8460   -7.9610 S   0  0  0  0  0  3  0  0  0  0  0  0
    0.7200   10.4400   -8.3270 C   0  0  0  0  0  0  0  0  0  0  0  0
    0.5200    9.2660   -7.3910 C   0  0  0  0  0  0  0  0  0  0  0  0
    0.5800    8.0950   -8.0410 N   0  0  0  0  0  0  0  0  0  0  0  0
    0.4320    6.9230   -7.4130 C   0  0  0  0  0  0  0  0  0  0  0  0
    0.1710    6.8500   -6.0490 C   0  0  0  0  0  0  0  0  0  0  0  0
    0.0730    8.0370   -5.3300 C   0  0  0  0  0  0  0  0  0  0  0  0
    0.2430    9.2710   -5.9990 C   0  0  0  0  0  0  0  0  0  0  0  0
    0.6010   12.9330   -7.9940 O   0  0  0  0  0  0  0  0  0  0  0  0
   -0.1850    7.9650   -3.9690 O   0  0  0  0  0  0  0  0  0  0  0  0
   -1.4220    7.4430   -3.4690 C   0  0  0  0  0  0  0  0  0  0  0  0
   -2.4260    8.5890   -3.4360 C   0  0  0  0  0  0  0  0  0  0  0  0
   -3.7950    8.1420   -2.9570 C   0  0  0  0  0  0  0  0  0  0  0  0
   -4.7430    8.9200   -3.6980 O   0  0  0  0  0  0  0  0  0  0  0  0
   -5.8490    8.1420   -4.1630 C   0  0  0  0  0  0  0  0  0  0  0  0
    0.1340   10.5440   -5.1780 C   0  0  0  0  0  0  0  0  0  0  0  0
  1  2  2  0
  1  6  1  0
  2  3  1  0
  2  9  1  0
  3  4  2  0
  3  7  1  0
  4  5  1  0
  5  6  2  0
  7  8  2  0
  8  9  1  0
  8 10  1  0
 10 11  1  0
 10 18  1  1
 11 12  1  0
 12 13  2  0
 12 17  1  0
 13 14  1  0
 14 15  2  0
 15 16  1  0
 16 17  2  0
 16 19  1  0
 17 25  1  0
 19 20  1  0
 20 21  1  0
 21 22  1  0
 22 23  1  0
 23 24  1  0
M  CHG  1  10   1
M  END
>  <_TriposChargeType>  (18) 
GAsT_HUCK

>  <PDB_ID>  (18) 
3pgl

$$$$
3pgl_ligand
     RDKit          3D

 25 27  0  0  0  0  0  0  0  0999 V2000
    3.4510   11.3720   -3.1790 C   0  0  0  0  0  0  0  0  0  0  0  0
    3.1650   11.7250   -4.4860 C   0  0  0  0  0  0  0  0  0  0  0  0
    3.8770   12.8740   -5.1010 C   0  0  0  0  0  0  0  0  0  0  0  0
    4.8200   13.5610   -4.3510 C   0  0  0  0  0  0  0  0  0  0  0  0
    5.0840   13.1730   -3.0410 C   0  0  0  0  0  0  0  0  0  0  0  0
    4.4040   12.1030   -2.4750 C   0  0  0  0  0  0  0  0  0  0  0  0
    3.4150   13.0050   -6.3620 N   0  0  0  0  0  0  0  0  0  0  0  0
    2.5100   12.0090   -6.4990 C   0  0  0  0  0  0  0  0  0  0  0  0
    2.3160   11.2310   -5.4170 N   0  0  0  0  0  0  0  0  0  0  0  0
    1.6520   11.8460   -7.9610 S   0  0  0  0  0  3  0  0  0  0  0  0
    0.7200   10.4400   -8.3270 C   0  0  0  0  0  0  0  0  0  0  0  0
    0.5200    9.2660   -7.3910 C   0  0  0  0  0  0  0  0  0  0  0  0
    0.5800    8.0950   -8.0410 N   0  0  0  0  0  0  0  0  0  0  0  0
    0.4320    6.9230   -7.4130 C   0  0  0  0  0  0  0  0  0  0  0  0
    0.1710    6.8500   -6.0490 C   0  0  0  0  0  0  0  0  0  0  0  0
    0.0730    8.0370   -5.3300 C   0  0  0  0  0  0  0  0  0  0  0  0
    0.2430    9.2710   -5.9990 C   0  0  0  0  0  0  0  0  0  0  0  0
    0.6010   12.9330   -7.9940 O   0  0  0  0  0  0  0  0  0  0  0  0
   -0.1850    7.9650   -3.9690 O   0  0  0  0  0  0  0  0  0  0  0  0
   -1.4220    7.4430   -3.4690 C   0  0  0  0  0  0  0  0  0  0  0  0
   -2.4260    8.5890   -3.4360 C   0  0  0  0  0  0  0  0  0  0  0  0
   -3.7950    8.1420   -2.9570 C   0  0  0  0  0  0  0  0  0  0  0  0
   -4.7430    8.9200   -3.6980 O   0  0  0  0  0  0  0  0  0  0  0  0
   -5.8490    8.1420   -4.1630 C   0  0  0  0  0  0  0  0  0  0  0  0
    0.1340   10.5440   -5.1780 C   0  0  0  0  0  0  0  0  0  0  0  0
  1  2  2  0
  1  6  1  0
  2  3  1  0
  2  9  1  0
  3  4  2  0
  3  7  1  0
  4  5  1  0
  5  6  2  0
  7  8  2  0
  8  9  1  0
  8 10  1  0
 10 11  1  0
 10 18  1  1
 11 12  1  0
 12 13  2  0
 12 17  1  0
 13 14  1  0
 14 15  2  0
 15 16  1  0
 16 17  2  0
 16 19  1  0
 17 25  1  0
 19 20  1  0
 20 21  1  0
 21 22  1  0
 22 23  1  0
 23 24  1  0
M  CHG  1  10   1
M  END
>  <_TriposChargeType>  (19) 
GAsT_HUCK

>  <PDB_ID>  (19) 
3pgl

$$$$
3pgl_ligand
     RDKit          3D

 25 27  0  0  0  0  0  0  0  0999 V2000
    3.4510   11.3720   -3.1790 C   0  0  0  0  0  0  0  0  0  0  0  0
    3.1650   11.7250   -4.4860 C   0  0  0  0  0  0  0  0  0  0  0  0
    3.8770   12.8740   -5.1010 C   0  0  0  0  0  0  0  0  0  0  0  0
    4.8200   13.5610   -4.3510 C   0  0  0  0  0  0  0  0  0  0  0  0
    5.0840   13.1730   -3.0410 C   0  0  0  0  0  0  0  0  0  0  0  0
    4.4040   12.1030   -2.4750 C   0  0  0  0  0  0  0  0  0  0  0  0
    3.4150   13.0050   -6.3620 N   0  0  0  0  0  0  0  0  0  0  0  0
    2.5100   12.0090   -6.4990 C   0  0  0  0  0  0  0  0  0  0  0  0
    2.3160   11.2310   -5.4170 N   0  0  0  0  0  0  0  0  0  0  0  0
    1.6520   11.8460   -7.9610 S   0  0  0  0  0  3  0  0  0  0  0  0
    0.7200   10.4400   -8.3270 C   0  0  0  0  0  0  0  0  0  0  0  0
    0.5200    9.2660   -7.3910 C   0  0  0  0  0  0  0  0  0  0  0  0
    0.5800    8.0950   -8.0410 N   0  0  0  0  0  0  0  0  0  0  0  0
    0.4320    6.9230   -7.4130 C   0  0  0  0  0  0  0  0  0  0  0  0
    0.1710    6.8500   -6.0490 C   0  0  0  0  0  0  0  0  0  0  0  0
    0.0730    8.0370   -5.3300 C   0  0  0  0  0  0  0  0  0  0  0  0
    0.2430    9.2710   -5.9990 C   0  0  0  0  0  0  0  0  0  0  0  0
    0.6010   12.9330   -7.9940 O   0  0  0  0  0  0  0  0  0  0  0  0
   -0.1850    7.9650   -3.9690 O   0  0  0  0  0  0  0  0  0  0  0  0
   -1.4220    7.4430   -3.4690 C   0  0  0  0  0  0  0  0  0  0  0  0
   -2.4260    8.5890   -3.4360 C   0  0  0  0  0  0  0  0  0  0  0  0
   -3.7950    8.1420   -2.9570 C   0  0  0  0  0  0  0  0  0  0  0  0
   -4.7430    8.9200   -3.6980 O   0  0  0  0  0  0  0  0  0  0  0  0
   -5.8490    8.1420   -4.1630 C   0  0  0  0  0  0  0  0  0  0  0  0
    0.1340   10.5440   -5.1780 C   0  0  0  0  0  0  0  0  0  0  0  0
  1  2  2  0
  1  6  1  0
  2  3  1  0
  2  9  1  0
  3  4  2  0
  3  7  1  0
  4  5  1  0
  5  6  2  0
  7  8  2  0
  8  9  1  0
  8 10  1  0
 10 11  1  0
 10 18  1  1
 11 12  1  0
 12 13  2  0
 12 17  1  0
 13 14  1  0
 14 15  2  0
 15 16  1  0
 16 17  2  0
 16 19  1  0
 17 25  1  0
 19 20  1  0
 20 21  1  0
 21 22  1  0
 22 23  1  0
 23 24  1  0
M  CHG  1  10   1
M  END
>  <_TriposChargeType>  (20) 
GAsT_HUCK

>  <PDB_ID>  (20) 
3pgl

$$$$
3pgl_ligand
     RDKit          3D

 25 27  0  0  0  0  0  0  0  0999 V2000
    3.4510   11.3720   -3.1790 C   0  0  0  0  0  0  0  0  0  0  0  0
    3.1650   11.7250   -4.4860 C   0  0  0  0  0  0  0  0  0  0  0  0
    3.8770   12.8740   -5.1010 C   0  0  0  0  0  0  0  0  0  0  0  0
    4.8200   13.5610   -4.3510 C   0  0  0  0  0  0  0  0  0  0  0  0
    5.0840   13.1730   -3.0410 C   0  0  0  0  0  0  0  0  0  0  0  0
    4.4040   12.1030   -2.4750 C   0  0  0  0  0  0  0  0  0  0  0  0
    3.4150   13.0050   -6.3620 N   0  0  0  0  0  0  0  0  0  0  0  0
    2.5100   12.0090   -6.4990 C   0  0  0  0  0  0  0  0  0  0  0  0
    2.3160   11.2310   -5.4170 N   0  0  0  0  0  0  0  0  0  0  0  0
    1.6520   11.8460   -7.9610 S   0  0  0  0  0  3  0  0  0  0  0  0
    0.7200   10.4400   -8.3270 C   0  0  0  0  0  0  0  0  0  0  0  0
    0.5200    9.2660   -7.3910 C   0  0  0  0  0  0  0  0  0  0  0  0
    0.5800    8.0950   -8.0410 N   0  0  0  0  0  0  0  0  0  0  0  0
    0.4320    6.9230   -7.4130 C   0  0  0  0  0  0  0  0  0  0  0  0
    0.1710    6.8500   -6.0490 C   0  0  0  0  0  0  0  0  0  0  0  0
    0.0730    8.0370   -5.3300 C   0  0  0  0  0  0  0  0  0  0  0  0
    0.2430    9.2710   -5.9990 C   0  0  0  0  0  0  0  0  0  0  0  0
    0.6010   12.9330   -7.9940 O   0  0  0  0  0  0  0  0  0  0  0  0
   -0.1850    7.9650   -3.9690 O   0  0  0  0  0  0  0  0  0  0  0  0
   -1.4220    7.4430   -3.4690 C   0  0  0  0  0  0  0  0  0  0  0  0
   -2.4260    8.5890   -3.4360 C   0  0  0  0  0  0  0  0  0  0  0  0
   -3.7950    8.1420   -2.9570 C   0  0  0  0  0  0  0  0  0  0  0  0
   -4.7430    8.9200   -3.6980 O   0  0  0  0  0  0  0  0  0  0  0  0
   -5.8490    8.1420   -4.1630 C   0  0  0  0  0  0  0  0  0  0  0  0
    0.1340   10.5440   -5.1780 C   0  0  0  0  0  0  0  0  0  0  0  0
  1  2  2  0
  1  6  1  0
  2  3  1  0
  2  9  1  0
  3  4  2  0
  3  7  1  0
  4  5  1  0
  5  6  2  0
  7  8  2  0
  8  9  1  0
  8 10  1  0
 10 11  1  0
 10 18  1  1
 11 12  1  0
 12 13  2  0
 12 17  1  0
 13 14  1  0
 14 15  2  0
 15 16  1  0
 16 17  2  0
 16 19  1  0
 17 25  1  0
 19 20  1  0
 20 21  1  0
 21 22  1  0
 22 23  1  0
 23 24  1  0
M  CHG  1  10   1
M  END
>  <_TriposChargeType>  (21) 
GAsT_HUCK

>  <PDB_ID>  (21) 
3pgl

$$$$
3pgl_ligand
     RDKit          3D

 25 27  0  0  0  0  0  0  0  0999 V2000
    3.4510   11.3720   -3.1790 C   0  0  0  0  0  0  0  0  0  0  0  0
    3.1650   11.7250   -4.4860 C   0  0  0  0  0  0  0  0  0  0  0  0
    3.8770   12.8740   -5.1010 C   0  0  0  0  0  0  0  0  0  0  0  0
    4.8200   13.5610   -4.3510 C   0  0  0  0  0  0  0  0  0  0  0  0
    5.0840   13.1730   -3.0410 C   0  0  0  0  0  0  0  0  0  0  0  0
    4.4040   12.1030   -2.4750 C   0  0  0  0  0  0  0  0  0  0  0  0
    3.4150   13.0050   -6.3620 N   0  0  0  0  0  0  0  0  0  0  0  0
    2.5100   12.0090   -6.4990 C   0  0  0  0  0  0  0  0  0  0  0  0
    2.3160   11.2310   -5.4170 N   0  0  0  0  0  0  0  0  0  0  0  0
    1.6520   11.8460   -7.9610 S   0  0  0  0  0  3  0  0  0  0  0  0
    0.7200   10.4400   -8.3270 C   0  0  0  0  0  0  0  0  0  0  0  0
    0.5200    9.2660   -7.3910 C   0  0  0  0  0  0  0  0  0  0  0  0
    0.5800    8.0950   -8.0410 N   0  0  0  0  0  0  0  0  0  0  0  0
    0.4320    6.9230   -7.4130 C   0  0  0  0  0  0  0  0  0  0  0  0
    0.1710    6.8500   -6.0490 C   0  0  0  0  0  0  0  0  0  0  0  0
    0.0730    8.0370   -5.3300 C   0  0  0  0  0  0  0  0  0  0  0  0
    0.2430    9.2710   -5.9990 C   0  0  0  0  0  0  0  0  0  0  0  0
    0.6010   12.9330   -7.9940 O   0  0  0  0  0  0  0  0  0  0  0  0
   -0.1850    7.9650   -3.9690 O   0  0  0  0  0  0  0  0  0  0  0  0
   -1.4220    7.4430   -3.4690 C   0  0  0  0  0  0  0  0  0  0  0  0
   -2.4260    8.5890   -3.4360 C   0  0  0  0  0  0  0  0  0  0  0  0
   -3.7950    8.1420   -2.9570 C   0  0  0  0  0  0  0  0  0  0  0  0
   -4.7430    8.9200   -3.6980 O   0  0  0  0  0  0  0  0  0  0  0  0
   -5.8490    8.1420   -4.1630 C   0  0  0  0  0  0  0  0  0  0  0  0
    0.1340   10.5440   -5.1780 C   0  0  0  0  0  0  0  0  0  0  0  0
  1  2  2  0
  1  6  1  0
  2  3  1  0
  2  9  1  0
  3  4  2  0
  3  7  1  0
  4  5  1  0
  5  6  2  0
  7  8  2  0
  8  9  1  0
  8 10  1  0
 10 11  1  0
 10 18  1  1
 11 12  1  0
 12 13  2  0
 12 17  1  0
 13 14  1  0
 14 15  2  0
 15 16  1  0
 16 17  2  0
 16 19  1  0
 17 25  1  0
 19 20  1  0
 20 21  1  0
 21 22  1  0
 22 23  1  0
 23 24  1  0
M  CHG  1  10   1
M  END
>  <_TriposChargeType>  (22) 
GAsT_HUCK

>  <PDB_ID>  (22) 
3pgl

$$$$
3pgl_ligand
     RDKit          3D

 25 27  0  0  0  0  0  0  0  0999 V2000
    3.4510   11.3720   -3.1790 C   0  0  0  0  0  0  0  0  0  0  0  0
    3.1650   11.7250   -4.4860 C   0  0  0  0  0  0  0  0  0  0  0  0
    3.8770   12.8740   -5.1010 C   0  0  0  0  0  0  0  0  0  0  0  0
    4.8200   13.5610   -4.3510 C   0  0  0  0  0  0  0  0  0  0  0  0
    5.0840   13.1730   -3.0410 C   0  0  0  0  0  0  0  0  0  0  0  0
    4.4040   12.1030   -2.4750 C   0  0  0  0  0  0  0  0  0  0  0  0
    3.4150   13.0050   -6.3620 N   0  0  0  0  0  0  0  0  0  0  0  0
    2.5100   12.0090   -6.4990 C   0  0  0  0  0  0  0  0  0  0  0  0
    2.3160   11.2310   -5.4170 N   0  0  0  0  0  0  0  0  0  0  0  0
    1.6520   11.8460   -7.9610 S   0  0  0  0  0  3  0  0  0  0  0  0
    0.7200   10.4400   -8.3270 C   0  0  0  0  0  0  0  0  0  0  0  0
    0.5200    9.2660   -7.3910 C   0  0  0  0  0  0  0  0  0  0  0  0
    0.5800    8.0950   -8.0410 N   0  0  0  0  0  0  0  0  0  0  0  0
    0.4320    6.9230   -7.4130 C   0  0  0  0  0  0  0  0  0  0  0  0
    0.1710    6.8500   -6.0490 C   0  0  0  0  0  0  0  0  0  0  0  0
    0.0730    8.0370   -5.3300 C   0  0  0  0  0  0  0  0  0  0  0  0
    0.2430    9.2710   -5.9990 C   0  0  0  0  0  0  0  0  0  0  0  0
    0.6010   12.9330   -7.9940 O   0  0  0  0  0  0  0  0  0  0  0  0
   -0.1850    7.9650   -3.9690 O   0  0  0  0  0  0  0  0  0  0  0  0
   -1.4220    7.4430   -3.4690 C   0  0  0  0  0  0  0  0  0  0  0  0
   -2.4260    8.5890   -3.4360 C   0  0  0  0  0  0  0  0  0  0  0  0
   -3.7950    8.1420   -2.9570 C   0  0  0  0  0  0  0  0  0  0  0  0
   -4.7430    8.9200   -3.6980 O   0  0  0  0  0  0  0  0  0  0  0  0
   -5.8490    8.1420   -4.1630 C   0  0  0  0  0  0  0  0  0  0  0  0
    0.1340   10.5440   -5.1780 C   0  0  0  0  0  0  0  0  0  0  0  0
  1  2  2  0
  1  6  1  0
  2  3  1  0
  2  9  1  0
  3  4  2  0
  3  7  1  0
  4  5  1  0
  5  6  2  0
  7  8  2  0
  8  9  1  0
  8 10  1  0
 10 11  1  0
 10 18  1  1
 11 12  1  0
 12 13  2  0
 12 17  1  0
 13 14  1  0
 14 15  2  0
 15 16  1  0
 16 17  2  0
 16 19  1  0
 17 25  1  0
 19 20  1  0
 20 21  1  0
 21 22  1  0
 22 23  1  0
 23 24  1  0
M  CHG  1  10   1
M  END
>  <_TriposChargeType>  (23) 
GAsT_HUCK

>  <PDB_ID>  (23) 
3pgl

$$$$
3pgl_ligand
     RDKit          3D

 25 27  0  0  0  0  0  0  0  0999 V2000
    3.4510   11.3720   -3.1790 C   0  0  0  0  0  0  0  0  0  0  0  0
    3.1650   11.7250   -4.4860 C   0  0  0  0  0  0  0  0  0  0  0  0
    3.8770   12.8740   -5.1010 C   0  0  0  0  0  0  0  0  0  0  0  0
    4.8200   13.5610   -4.3510 C   0  0  0  0  0  0  0  0  0  0  0  0
    5.0840   13.1730   -3.0410 C   0  0  0  0  0  0  0  0  0  0  0  0
    4.4040   12.1030   -2.4750 C   0  0  0  0  0  0  0  0  0  0  0  0
    3.4150   13.0050   -6.3620 N   0  0  0  0  0  0  0  0  0  0  0  0
    2.5100   12.0090   -6.4990 C   0  0  0  0  0  0  0  0  0  0  0  0
    2.3160   11.2310   -5.4170 N   0  0  0  0  0  0  0  0  0  0  0  0
    1.6520   11.8460   -7.9610 S   0  0  0  0  0  3  0  0  0  0  0  0
    0.7200   10.4400   -8.3270 C   0  0  0  0  0  0  0  0  0  0  0  0
    0.5200    9.2660   -7.3910 C   0  0  0  0  0  0  0  0  0  0  0  0
    0.5800    8.0950   -8.0410 N   0  0  0  0  0  0  0  0  0  0  0  0
    0.4320    6.9230   -7.4130 C   0  0  0  0  0  0  0  0  0  0  0  0
    0.1710    6.8500   -6.0490 C   0  0  0  0  0  0  0  0  0  0  0  0
    0.0730    8.0370   -5.3300 C   0  0  0  0  0  0  0  0  0  0  0  0
    0.2430    9.2710   -5.9990 C   0  0  0  0  0  0  0  0  0  0  0  0
    0.6010   12.9330   -7.9940 O   0  0  0  0  0  0  0  0  0  0  0  0
   -0.1850    7.9650   -3.9690 O   0  0  0  0  0  0  0  0  0  0  0  0
   -1.4220    7.4430   -3.4690 C   0  0  0  0  0  0  0  0  0  0  0  0
   -2.4260    8.5890   -3.4360 C   0  0  0  0  0  0  0  0  0  0  0  0
   -3.7950    8.1420   -2.9570 C   0  0  0  0  0  0  0  0  0  0  0  0
   -4.7430    8.9200   -3.6980 O   0  0  0  0  0  0  0  0  0  0  0  0
   -5.8490    8.1420   -4.1630 C   0  0  0  0  0  0  0  0  0  0  0  0
    0.1340   10.5440   -5.1780 C   0  0  0  0  0  0  0  0  0  0  0  0
  1  2  2  0
  1  6  1  0
  2  3  1  0
  2  9  1  0
  3  4  2  0
  3  7  1  0
  4  5  1  0
  5  6  2  0
  7  8  2  0
  8  9  1  0
  8 10  1  0
 10 11  1  0
 10 18  1  1
 11 12  1  0
 12 13  2  0
 12 17  1  0
 13 14  1  0
 14 15  2  0
 15 16  1  0
 16 17  2  0
 16 19  1  0
 17 25  1  0
 19 20  1  0
 20 21  1  0
 21 22  1  0
 22 23  1  0
 23 24  1  0
M  CHG  1  10   1
M  END
>  <_TriposChargeType>  (24) 
GAsT_HUCK

>  <PDB_ID>  (24) 
3pgl

$$$$
3pgl_ligand
     RDKit          3D

 25 27  0  0  0  0  0  0  0  0999 V2000
    3.4510   11.3720   -3.1790 C   0  0  0  0  0  0  0  0  0  0  0  0
    3.1650   11.7250   -4.4860 C   0  0  0  0  0  0  0  0  0  0  0  0
    3.8770   12.8740   -5.1010 C   0  0  0  0  0  0  0  0  0  0  0  0
    4.8200   13.5610   -4.3510 C   0  0  0  0  0  0  0  0  0  0  0  0
    5.0840   13.1730   -3.0410 C   0  0  0  0  0  0  0  0  0  0  0  0
    4.4040   12.1030   -2.4750 C   0  0  0  0  0  0  0  0  0  0  0  0
    3.4150   13.0050   -6.3620 N   0  0  0  0  0  0  0  0  0  0  0  0
    2.5100   12.0090   -6.4990 C   0  0  0  0  0  0  0  0  0  0  0  0
    2.3160   11.2310   -5.4170 N   0  0  0  0  0  0  0  0  0  0  0  0
    1.6520   11.8460   -7.9610 S   0  0  0  0  0  3  0  0  0  0  0  0
    0.7200   10.4400   -8.3270 C   0  0  0  0  0  0  0  0  0  0  0  0
    0.5200    9.2660   -7.3910 C   0  0  0  0  0  0  0  0  0  0  0  0
    0.5800    8.0950   -8.0410 N   0  0  0  0  0  0  0  0  0  0  0  0
    0.4320    6.9230   -7.4130 C   0  0  0  0  0  0  0  0  0  0  0  0
    0.1710    6.8500   -6.0490 C   0  0  0  0  0  0  0  0  0  0  0  0
    0.0730    8.0370   -5.3300 C   0  0  0  0  0  0  0  0  0  0  0  0
    0.2430    9.2710   -5.9990 C   0  0  0  0  0  0  0  0  0  0  0  0
    0.6010   12.9330   -7.9940 O   0  0  0  0  0  0  0  0  0  0  0  0
   -0.1850    7.9650   -3.9690 O   0  0  0  0  0  0  0  0  0  0  0  0
   -1.4220    7.4430   -3.4690 C   0  0  0  0  0  0  0  0  0  0  0  0
   -2.4260    8.5890   -3.4360 C   0  0  0  0  0  0  0  0  0  0  0  0
   -3.7950    8.1420   -2.9570 C   0  0  0  0  0  0  0  0  0  0  0  0
   -4.7430    8.9200   -3.6980 O   0  0  0  0  0  0  0  0  0  0  0  0
   -5.8490    8.1420   -4.1630 C   0  0  0  0  0  0  0  0  0  0  0  0
    0.1340   10.5440   -5.1780 C   0  0  0  0  0  0  0  0  0  0  0  0
  1  2  2  0
  1  6  1  0
  2  3  1  0
  2  9  1  0
  3  4  2  0
  3  7  1  0
  4  5  1  0
  5  6  2  0
  7  8  2  0
  8  9  1  0
  8 10  1  0
 10 11  1  0
 10 18  1  1
 11 12  1  0
 12 13  2  0
 12 17  1  0
 13 14  1  0
 14 15  2  0
 15 16  1  0
 16 17  2  0
 16 19  1  0
 17 25  1  0
 19 20  1  0
 20 21  1  0
 21 22  1  0
 22 23  1  0
 23 24  1  0
M  CHG  1  10   1
M  END
>  <_TriposChargeType>  (25) 
GAsT_HUCK

>  <PDB_ID>  (25) 
3pgl

$$$$
3pgl_ligand
     RDKit          3D

 25 27  0  0  0  0  0  0  0  0999 V2000
    3.4510   11.3720   -3.1790 C   0  0  0  0  0  0  0  0  0  0  0  0
    3.1650   11.7250   -4.4860 C   0  0  0  0  0  0  0  0  0  0  0  0
    3.8770   12.8740   -5.1010 C   0  0  0  0  0  0  0  0  0  0  0  0
    4.8200   13.5610   -4.3510 C   0  0  0  0  0  0  0  0  0  0  0  0
    5.0840   13.1730   -3.0410 C   0  0  0  0  0  0  0  0  0  0  0  0
    4.4040   12.1030   -2.4750 C   0  0  0  0  0  0  0  0  0  0  0  0
    3.4150   13.0050   -6.3620 N   0  0  0  0  0  0  0  0  0  0  0  0
    2.5100   12.0090   -6.4990 C   0  0  0  0  0  0  0  0  0  0  0  0
    2.3160   11.2310   -5.4170 N   0  0  0  0  0  0  0  0  0  0  0  0
    1.6520   11.8460   -7.9610 S   0  0  0  0  0  3  0  0  0  0  0  0
    0.7200   10.4400   -8.3270 C   0  0  0  0  0  0  0  0  0  0  0  0
    0.5200    9.2660   -7.3910 C   0  0  0  0  0  0  0  0  0  0  0  0
    0.5800    8.0950   -8.0410 N   0  0  0  0  0  0  0  0  0  0  0  0
    0.4320    6.9230   -7.4130 C   0  0  0  0  0  0  0  0  0  0  0  0
    0.1710    6.8500   -6.0490 C   0  0  0  0  0  0  0  0  0  0  0  0
    0.0730    8.0370   -5.3300 C   0  0  0  0  0  0  0  0  0  0  0  0
    0.2430    9.2710   -5.9990 C   0  0  0  0  0  0  0  0  0  0  0  0
    0.6010   12.9330   -7.9940 O   0  0  0  0  0  0  0  0  0  0  0  0
   -0.1850    7.9650   -3.9690 O   0  0  0  0  0  0  0  0  0  0  0  0
   -1.4220    7.4430   -3.4690 C   0  0  0  0  0  0  0  0  0  0  0  0
   -2.4260    8.5890   -3.4360 C   0  0  0  0  0  0  0  0  0  0  0  0
   -3.7950    8.1420   -2.9570 C   0  0  0  0  0  0  0  0  0  0  0  0
   -4.7430    8.9200   -3.6980 O   0  0  0  0  0  0  0  0  0  0  0  0
   -5.8490    8.1420   -4.1630 C   0  0  0  0  0  0  0  0  0  0  0  0
    0.1340   10.5440   -5.1780 C   0  0  0  0  0  0  0  0  0  0  0  0
  1  2  2  0
  1  6  1  0
  2  3  1  0
  2  9  1  0
  3  4  2  0
  3  7  1  0
  4  5  1  0
  5  6  2  0
  7  8  2  0
  8  9  1  0
  8 10  1  0
 10 11  1  0
 10 18  1  1
 11 12  1  0
 12 13  2  0
 12 17  1  0
 13 14  1  0
 14 15  2  0
 15 16  1  0
 16 17  2  0
 16 19  1  0
 17 25  1  0
 19 20  1  0
 20 21  1  0
 21 22  1  0
 22 23  1  0
 23 24  1  0
M  CHG  1  10   1
M  END
>  <_TriposChargeType>  (26) 
GAsT_HUCK

>  <PDB_ID>  (26) 
3pgl

$$$$
3pgl_ligand
     RDKit          3D

 25 27  0  0  0  0  0  0  0  0999 V2000
    3.4510   11.3720   -3.1790 C   0  0  0  0  0  0  0  0  0  0  0  0
    3.1650   11.7250   -4.4860 C   0  0  0  0  0  0  0  0  0  0  0  0
    3.8770   12.8740   -5.1010 C   0  0  0  0  0  0  0  0  0  0  0  0
    4.8200   13.5610   -4.3510 C   0  0  0  0  0  0  0  0  0  0  0  0
    5.0840   13.1730   -3.0410 C   0  0  0  0  0  0  0  0  0  0  0  0
    4.4040   12.1030   -2.4750 C   0  0  0  0  0  0  0  0  0  0  0  0
    3.4150   13.0050   -6.3620 N   0  0  0  0  0  0  0  0  0  0  0  0
    2.5100   12.0090   -6.4990 C   0  0  0  0  0  0  0  0  0  0  0  0
    2.3160   11.2310   -5.4170 N   0  0  0  0  0  0  0  0  0  0  0  0
    1.6520   11.8460   -7.9610 S   0  0  0  0  0  3  0  0  0  0  0  0
    0.7200   10.4400   -8.3270 C   0  0  0  0  0  0  0  0  0  0  0  0
    0.5200    9.2660   -7.3910 C   0  0  0  0  0  0  0  0  0  0  0  0
    0.5800    8.0950   -8.0410 N   0  0  0  0  0  0  0  0  0  0  0  0
    0.4320    6.9230   -7.4130 C   0  0  0  0  0  0  0  0  0  0  0  0
    0.1710    6.8500   -6.0490 C   0  0  0  0  0  0  0  0  0  0  0  0
    0.0730    8.0370   -5.3300 C   0  0  0  0  0  0  0  0  0  0  0  0
    0.2430    9.2710   -5.9990 C   0  0  0  0  0  0  0  0  0  0  0  0
    0.6010   12.9330   -7.9940 O   0  0  0  0  0  0  0  0  0  0  0  0
   -0.1850    7.9650   -3.9690 O   0  0  0  0  0  0  0  0  0  0  0  0
   -1.4220    7.4430   -3.4690 C   0  0  0  0  0  0  0  0  0  0  0  0
   -2.4260    8.5890   -3.4360 C   0  0  0  0  0  0  0  0  0  0  0  0
   -3.7950    8.1420   -2.9570 C   0  0  0  0  0  0  0  0  0  0  0  0
   -4.7430    8.9200   -3.6980 O   0  0  0  0  0  0  0  0  0  0  0  0
   -5.8490    8.1420   -4.1630 C   0  0  0  0  0  0  0  0  0  0  0  0
    0.1340   10.5440   -5.1780 C   0  0  0  0  0  0  0  0  0  0  0  0
  1  2  2  0
  1  6  1  0
  2  3  1  0
  2  9  1  0
  3  4  2  0
  3  7  1  0
  4  5  1  0
  5  6  2  0
  7  8  2  0
  8  9  1  0
  8 10  1  0
 10 11  1  0
 10 18  1  1
 11 12  1  0
 12 13  2  0
 12 17  1  0
 13 14  1  0
 14 15  2  0
 15 16  1  0
 16 17  2  0
 16 19  1  0
 17 25  1  0
 19 20  1  0
 20 21  1  0
 21 22  1  0
 22 23  1  0
 23 24  1  0
M  CHG  1  10   1
M  END
>  <_TriposChargeType>  (27) 
GAsT_HUCK

>  <PDB_ID>  (27) 
3pgl

$$$$
3pgl_ligand
     RDKit          3D

 25 27  0  0  0  0  0  0  0  0999 V2000
    3.4510   11.3720   -3.1790 C   0  0  0  0  0  0  0  0  0  0  0  0
    3.1650   11.7250   -4.4860 C   0  0  0  0  0  0  0  0  0  0  0  0
    3.8770   12.8740   -5.1010 C   0  0  0  0  0  0  0  0  0  0  0  0
    4.8200   13.5610   -4.3510 C   0  0  0  0  0  0  0  0  0  0  0  0
    5.0840   13.1730   -3.0410 C   0  0  0  0  0  0  0  0  0  0  0  0
    4.4040   12.1030   -2.4750 C   0  0  0  0  0  0  0  0  0  0  0  0
    3.4150   13.0050   -6.3620 N   0  0  0  0  0  0  0  0  0  0  0  0
    2.5100   12.0090   -6.4990 C   0  0  0  0  0  0  0  0  0  0  0  0
    2.3160   11.2310   -5.4170 N   0  0  0  0  0  0  0  0  0  0  0  0
    1.6520   11.8460   -7.9610 S   0  0  0  0  0  3  0  0  0  0  0  0
    0.7200   10.4400   -8.3270 C   0  0  0  0  0  0  0  0  0  0  0  0
    0.5200    9.2660   -7.3910 C   0  0  0  0  0  0  0  0  0  0  0  0
    0.5800    8.0950   -8.0410 N   0  0  0  0  0  0  0  0  0  0  0  0
    0.4320    6.9230   -7.4130 C   0  0  0  0  0  0  0  0  0  0  0  0
    0.1710    6.8500   -6.0490 C   0  0  0  0  0  0  0  0  0  0  0  0
    0.0730    8.0370   -5.3300 C   0  0  0  0  0  0  0  0  0  0  0  0
    0.2430    9.2710   -5.9990 C   0  0  0  0  0  0  0  0  0  0  0  0
    0.6010   12.9330   -7.9940 O   0  0  0  0  0  0  0  0  0  0  0  0
   -0.1850    7.9650   -3.9690 O   0  0  0  0  0  0  0  0  0  0  0  0
   -1.4220    7.4430   -3.4690 C   0  0  0  0  0  0  0  0  0  0  0  0
   -2.4260    8.5890   -3.4360 C   0  0  0  0  0  0  0  0  0  0  0  0
   -3.7950    8.1420   -2.9570 C   0  0  0  0  0  0  0  0  0  0  0  0
   -4.7430    8.9200   -3.6980 O   0  0  0  0  0  0  0  0  0  0  0  0
   -5.8490    8.1420   -4.1630 C   0  0  0  0  0  0  0  0  0  0  0  0
    0.1340   10.5440   -5.1780 C   0  0  0  0  0  0  0  0  0  0  0  0
  1  2  2  0
  1  6  1  0
  2  3  1  0
  2  9  1  0
  3  4  2  0
  3  7  1  0
  4  5  1  0
  5  6  2  0
  7  8  2  0
  8  9  1  0
  8 10  1  0
 10 11  1  0
 10 18  1  1
 11 12  1  0
 12 13  2  0
 12 17  1  0
 13 14  1  0
 14 15  2  0
 15 16  1  0
 16 17  2  0
 16 19  1  0
 17 25  1  0
 19 20  1  0
 20 21  1  0
 21 22  1  0
 22 23  1  0
 23 24  1  0
M  CHG  1  10   1
M  END
>  <_TriposChargeType>  (28) 
GAsT_HUCK

>  <PDB_ID>  (28) 
3pgl

$$$$
3pgl_ligand
     RDKit          3D

 25 27  0  0  0  0  0  0  0  0999 V2000
    3.4510   11.3720   -3.1790 C   0  0  0  0  0  0  0  0  0  0  0  0
    3.1650   11.7250   -4.4860 C   0  0  0  0  0  0  0  0  0  0  0  0
    3.8770   12.8740   -5.1010 C   0  0  0  0  0  0  0  0  0  0  0  0
    4.8200   13.5610   -4.3510 C   0  0  0  0  0  0  0  0  0  0  0  0
    5.0840   13.1730   -3.0410 C   0  0  0  0  0  0  0  0  0  0  0  0
    4.4040   12.1030   -2.4750 C   0  0  0  0  0  0  0  0  0  0  0  0
    3.4150   13.0050   -6.3620 N   0  0  0  0  0  0  0  0  0  0  0  0
    2.5100   12.0090   -6.4990 C   0  0  0  0  0  0  0  0  0  0  0  0
    2.3160   11.2310   -5.4170 N   0  0  0  0  0  0  0  0  0  0  0  0
    1.6520   11.8460   -7.9610 S   0  0  0  0  0  3  0  0  0  0  0  0
    0.7200   10.4400   -8.3270 C   0  0  0  0  0  0  0  0  0  0  0  0
    0.5200    9.2660   -7.3910 C   0  0  0  0  0  0  0  0  0  0  0  0
    0.5800    8.0950   -8.0410 N   0  0  0  0  0  0  0  0  0  0  0  0
    0.4320    6.9230   -7.4130 C   0  0  0  0  0  0  0  0  0  0  0  0
    0.1710    6.8500   -6.0490 C   0  0  0  0  0  0  0  0  0  0  0  0
    0.0730    8.0370   -5.3300 C   0  0  0  0  0  0  0  0  0  0  0  0
    0.2430    9.2710   -5.9990 C   0  0  0  0  0  0  0  0  0  0  0  0
    0.6010   12.9330   -7.9940 O   0  0  0  0  0  0  0  0  0  0  0  0
   -0.1850    7.9650   -3.9690 O   0  0  0  0  0  0  0  0  0  0  0  0
   -1.4220    7.4430   -3.4690 C   0  0  0  0  0  0  0  0  0  0  0  0
   -2.4260    8.5890   -3.4360 C   0  0  0  0  0  0  0  0  0  0  0  0
   -3.7950    8.1420   -2.9570 C   0  0  0  0  0  0  0  0  0  0  0  0
   -4.7430    8.9200   -3.6980 O   0  0  0  0  0  0  0  0  0  0  0  0
   -5.8490    8.1420   -4.1630 C   0  0  0  0  0  0  0  0  0  0  0  0
    0.1340   10.5440   -5.1780 C   0  0  0  0  0  0  0  0  0  0  0  0
  1  2  2  0
  1  6  1  0
  2  3  1  0
  2  9  1  0
  3  4  2  0
  3  7  1  0
  4  5  1  0
  5  6  2  0
  7  8  2  0
  8  9  1  0
  8 10  1  0
 10 11  1  0
 10 18  1  1
 11 12  1  0
 12 13  2  0
 12 17  1  0
 13 14  1  0
 14 15  2  0
 15 16  1  0
 16 17  2  0
 16 19  1  0
 17 25  1  0
 19 20  1  0
 20 21  1  0
 21 22  1  0
 22 23  1  0
 23 24  1  0
M  CHG  1  10   1
M  END
>  <_TriposChargeType>  (29) 
GAsT_HUCK

>  <PDB_ID>  (29) 
3pgl

$$$$
3pgl_ligand
     RDKit          3D

 25 27  0  0  0  0  0  0  0  0999 V2000
    3.4510   11.3720   -3.1790 C   0  0  0  0  0  0  0  0  0  0  0  0
    3.1650   11.7250   -4.4860 C   0  0  0  0  0  0  0  0  0  0  0  0
    3.8770   12.8740   -5.1010 C   0  0  0  0  0  0  0  0  0  0  0  0
    4.8200   13.5610   -4.3510 C   0  0  0  0  0  0  0  0  0  0  0  0
    5.0840   13.1730   -3.0410 C   0  0  0  0  0  0  0  0  0  0  0  0
    4.4040   12.1030   -2.4750 C   0  0  0  0  0  0  0  0  0  0  0  0
    3.4150   13.0050   -6.3620 N   0  0  0  0  0  0  0  0  0  0  0  0
    2.5100   12.0090   -6.4990 C   0  0  0  0  0  0  0  0  0  0  0  0
    2.3160   11.2310   -5.4170 N   0  0  0  0  0  0  0  0  0  0  0  0
    1.6520   11.8460   -7.9610 S   0  0  0  0  0  3  0  0  0  0  0  0
    0.7200   10.4400   -8.3270 C   0  0  0  0  0  0  0  0  0  0  0  0
    0.5200    9.2660   -7.3910 C   0  0  0  0  0  0  0  0  0  0  0  0
    0.5800    8.0950   -8.0410 N   0  0  0  0  0  0  0  0  0  0  0  0
    0.4320    6.9230   -7.4130 C   0  0  0  0  0  0  0  0  0  0  0  0
    0.1710    6.8500   -6.0490 C   0  0  0  0  0  0  0  0  0  0  0  0
    0.0730    8.0370   -5.3300 C   0  0  0  0  0  0  0  0  0  0  0  0
    0.2430    9.2710   -5.9990 C   0  0  0  0  0  0  0  0  0  0  0  0
    0.6010   12.9330   -7.9940 O   0  0  0  0  0  0  0  0  0  0  0  0
   -0.1850    7.9650   -3.9690 O   0  0  0  0  0  0  0  0  0  0  0  0
   -1.4220    7.4430   -3.4690 C   0  0  0  0  0  0  0  0  0  0  0  0
   -2.4260    8.5890   -3.4360 C   0  0  0  0  0  0  0  0  0  0  0  0
   -3.7950    8.1420   -2.9570 C   0  0  0  0  0  0  0  0  0  0  0  0
   -4.7430    8.9200   -3.6980 O   0  0  0  0  0  0  0  0  0  0  0  0
   -5.8490    8.1420   -4.1630 C   0  0  0  0  0  0  0  0  0  0  0  0
    0.1340   10.5440   -5.1780 C   0  0  0  0  0  0  0  0  0  0  0  0
  1  2  2  0
  1  6  1  0
  2  3  1  0
  2  9  1  0
  3  4  2  0
  3  7  1  0
  4  5  1  0
  5  6  2  0
  7  8  2  0
  8  9  1  0
  8 10  1  0
 10 11  1  0
 10 18  1  1
 11 12  1  0
 12 13  2  0
 12 17  1  0
 13 14  1  0
 14 15  2  0
 15 16  1  0
 16 17  2  0
 16 19  1  0
 17 25  1  0
 19 20  1  0
 20 21  1  0
 21 22  1  0
 22 23  1  0
 23 24  1  0
M  CHG  1  10   1
M  END
>  <_TriposChargeType>  (30) 
GAsT_HUCK

>  <PDB_ID>  (30) 
3pgl

$$$$
3pgl_ligand
     RDKit          3D

 25 27  0  0  0  0  0  0  0  0999 V2000
    3.4510   11.3720   -3.1790 C   0  0  0  0  0  0  0  0  0  0  0  0
    3.1650   11.7250   -4.4860 C   0  0  0  0  0  0  0  0  0  0  0  0
    3.8770   12.8740   -5.1010 C   0  0  0  0  0  0  0  0  0  0  0  0
    4.8200   13.5610   -4.3510 C   0  0  0  0  0  0  0  0  0  0  0  0
    5.0840   13.1730   -3.0410 C   0  0  0  0  0  0  0  0  0  0  0  0
    4.4040   12.1030   -2.4750 C   0  0  0  0  0  0  0  0  0  0  0  0
    3.4150   13.0050   -6.3620 N   0  0  0  0  0  0  0  0  0  0  0  0
    2.5100   12.0090   -6.4990 C   0  0  0  0  0  0  0  0  0  0  0  0
    2.3160   11.2310   -5.4170 N   0  0  0  0  0  0  0  0  0  0  0  0
    1.6520   11.8460   -7.9610 S   0  0  0  0  0  3  0  0  0  0  0  0
    0.7200   10.4400   -8.3270 C   0  0  0  0  0  0  0  0  0  0  0  0
    0.5200    9.2660   -7.3910 C   0  0  0  0  0  0  0  0  0  0  0  0
    0.5800    8.0950   -8.0410 N   0  0  0  0  0  0  0  0  0  0  0  0
    0.4320    6.9230   -7.4130 C   0  0  0  0  0  0  0  0  0  0  0  0
    0.1710    6.8500   -6.0490 C   0  0  0  0  0  0  0  0  0  0  0  0
    0.0730    8.0370   -5.3300 C   0  0  0  0  0  0  0  0  0  0  0  0
    0.2430    9.2710   -5.9990 C   0  0  0  0  0  0  0  0  0  0  0  0
    0.6010   12.9330   -7.9940 O   0  0  0  0  0  0  0  0  0  0  0  0
   -0.1850    7.9650   -3.9690 O   0  0  0  0  0  0  0  0  0  0  0  0
   -1.4220    7.4430   -3.4690 C   0  0  0  0  0  0  0  0  0  0  0  0
   -2.4260    8.5890   -3.4360 C   0  0  0  0  0  0  0  0  0  0  0  0
   -3.7950    8.1420   -2.9570 C   0  0  0  0  0  0  0  0  0  0  0  0
   -4.7430    8.9200   -3.6980 O   0  0  0  0  0  0  0  0  0  0  0  0
   -5.8490    8.1420   -4.1630 C   0  0  0  0  0  0  0  0  0  0  0  0
    0.1340   10.5440   -5.1780 C   0  0  0  0  0  0  0  0  0  0  0  0
  1  2  2  0
  1  6  1  0
  2  3  1  0
  2  9  1  0
  3  4  2  0
  3  7  1  0
  4  5  1  0
  5  6  2  0
  7  8  2  0
  8  9  1  0
  8 10  1  0
 10 11  1  0
 10 18  1  1
 11 12  1  0
 12 13  2  0
 12 17  1  0
 13 14  1  0
 14 15  2  0
 15 16  1  0
 16 17  2  0
 16 19  1  0
 17 25  1  0
 19 20  1  0
 20 21  1  0
 21 22  1  0
 22 23  1  0
 23 24  1  0
M  CHG  1  10   1
M  END
>  <_TriposChargeType>  (31) 
GAsT_HUCK

>  <PDB_ID>  (31) 
3pgl

$$$$
3pgl_ligand
     RDKit          3D

 25 27  0  0  0  0  0  0  0  0999 V2000
    3.4510   11.3720   -3.1790 C   0  0  0  0  0  0  0  0  0  0  0  0
    3.1650   11.7250   -4.4860 C   0  0  0  0  0  0  0  0  0  0  0  0
    3.8770   12.8740   -5.1010 C   0  0  0  0  0  0  0  0  0  0  0  0
    4.8200   13.5610   -4.3510 C   0  0  0  0  0  0  0  0  0  0  0  0
    5.0840   13.1730   -3.0410 C   0  0  0  0  0  0  0  0  0  0  0  0
    4.4040   12.1030   -2.4750 C   0  0  0  0  0  0  0  0  0  0  0  0
    3.4150   13.0050   -6.3620 N   0  0  0  0  0  0  0  0  0  0  0  0
    2.5100   12.0090   -6.4990 C   0  0  0  0  0  0  0  0  0  0  0  0
    2.3160   11.2310   -5.4170 N   0  0  0  0  0  0  0  0  0  0  0  0
    1.6520   11.8460   -7.9610 S   0  0  0  0  0  3  0  0  0  0  0  0
    0.7200   10.4400   -8.3270 C   0  0  0  0  0  0  0  0  0  0  0  0
    0.5200    9.2660   -7.3910 C   0  0  0  0  0  0  0  0  0  0  0  0
    0.5800    8.0950   -8.0410 N   0  0  0  0  0  0  0  0  0  0  0  0
    0.4320    6.9230   -7.4130 C   0  0  0  0  0  0  0  0  0  0  0  0
    0.1710    6.8500   -6.0490 C   0  0  0  0  0  0  0  0  0  0  0  0
    0.0730    8.0370   -5.3300 C   0  0  0  0  0  0  0  0  0  0  0  0
    0.2430    9.2710   -5.9990 C   0  0  0  0  0  0  0  0  0  0  0  0
    0.6010   12.9330   -7.9940 O   0  0  0  0  0  0  0  0  0  0  0  0
   -0.1850    7.9650   -3.9690 O   0  0  0  0  0  0  0  0  0  0  0  0
   -1.4220    7.4430   -3.4690 C   0  0  0  0  0  0  0  0  0  0  0  0
   -2.4260    8.5890   -3.4360 C   0  0  0  0  0  0  0  0  0  0  0  0
   -3.7950    8.1420   -2.9570 C   0  0  0  0  0  0  0  0  0  0  0  0
   -4.7430    8.9200   -3.6980 O   0  0  0  0  0  0  0  0  0  0  0  0
   -5.8490    8.1420   -4.1630 C   0  0  0  0  0  0  0  0  0  0  0  0
    0.1340   10.5440   -5.1780 C   0  0  0  0  0  0  0  0  0  0  0  0
  1  2  2  0
  1  6  1  0
  2  3  1  0
  2  9  1  0
  3  4  2  0
  3  7  1  0
  4  5  1  0
  5  6  2  0
  7  8  2  0
  8  9  1  0
  8 10  1  0
 10 11  1  0
 10 18  1  1
 11 12  1  0
 12 13  2  0
 12 17  1  0
 13 14  1  0
 14 15  2  0
 15 16  1  0
 16 17  2  0
 16 19  1  0
 17 25  1  0
 19 20  1  0
 20 21  1  0
 21 22  1  0
 22 23  1  0
 23 24  1  0
M  CHG  1  10   1
M  END
>  <_TriposChargeType>  (32) 
GAsT_HUCK

>  <PDB_ID>  (32) 
3pgl

$$$$
3pgl_ligand
     RDKit          3D

 25 27  0  0  0  0  0  0  0  0999 V2000
    3.4510   11.3720   -3.1790 C   0  0  0  0  0  0  0  0  0  0  0  0
    3.1650   11.7250   -4.4860 C   0  0  0  0  0  0  0  0  0  0  0  0
    3.8770   12.8740   -5.1010 C   0  0  0  0  0  0  0  0  0  0  0  0
    4.8200   13.5610   -4.3510 C   0  0  0  0  0  0  0  0  0  0  0  0
    5.0840   13.1730   -3.0410 C   0  0  0  0  0  0  0  0  0  0  0  0
    4.4040   12.1030   -2.4750 C   0  0  0  0  0  0  0  0  0  0  0  0
    3.4150   13.0050   -6.3620 N   0  0  0  0  0  0  0  0  0  0  0  0
    2.5100   12.0090   -6.4990 C   0  0  0  0  0  0  0  0  0  0  0  0
    2.3160   11.2310   -5.4170 N   0  0  0  0  0  0  0  0  0  0  0  0
    1.6520   11.8460   -7.9610 S   0  0  0  0  0  3  0  0  0  0  0  0
    0.7200   10.4400   -8.3270 C   0  0  0  0  0  0  0  0  0  0  0  0
    0.5200    9.2660   -7.3910 C   0  0  0  0  0  0  0  0  0  0  0  0
    0.5800    8.0950   -8.0410 N   0  0  0  0  0  0  0  0  0  0  0  0
    0.4320    6.9230   -7.4130 C   0  0  0  0  0  0  0  0  0  0  0  0
    0.1710    6.8500   -6.0490 C   0  0  0  0  0  0  0  0  0  0  0  0
    0.0730    8.0370   -5.3300 C   0  0  0  0  0  0  0  0  0  0  0  0
    0.2430    9.2710   -5.9990 C   0  0  0  0  0  0  0  0  0  0  0  0
    0.6010   12.9330   -7.9940 O   0  0  0  0  0  0  0  0  0  0  0  0
   -0.1850    7.9650   -3.9690 O   0  0  0  0  0  0  0  0  0  0  0  0
   -1.4220    7.4430   -3.4690 C   0  0  0  0  0  0  0  0  0  0  0  0
   -2.4260    8.5890   -3.4360 C   0  0  0  0  0  0  0  0  0  0  0  0
   -3.7950    8.1420   -2.9570 C   0  0  0  0  0  0  0  0  0  0  0  0
   -4.7430    8.9200   -3.6980 O   0  0  0  0  0  0  0  0  0  0  0  0
   -5.8490    8.1420   -4.1630 C   0  0  0  0  0  0  0  0  0  0  0  0
    0.1340   10.5440   -5.1780 C   0  0  0  0  0  0  0  0  0  0  0  0
  1  2  2  0
  1  6  1  0
  2  3  1  0
  2  9  1  0
  3  4  2  0
  3  7  1  0
  4  5  1  0
  5  6  2  0
  7  8  2  0
  8  9  1  0
  8 10  1  0
 10 11  1  0
 10 18  1  1
 11 12  1  0
 12 13  2  0
 12 17  1  0
 13 14  1  0
 14 15  2  0
 15 16  1  0
 16 17  2  0
 16 19  1  0
 17 25  1  0
 19 20  1  0
 20 21  1  0
 21 22  1  0
 22 23  1  0
 23 24  1  0
M  CHG  1  10   1
M  END
>  <_TriposChargeType>  (33) 
GAsT_HUCK

>  <PDB_ID>  (33) 
3pgl

$$$$
3pgl_ligand
     RDKit          3D

 25 27  0  0  0  0  0  0  0  0999 V2000
    3.4510   11.3720   -3.1790 C   0  0  0  0  0  0  0  0  0  0  0  0
    3.1650   11.7250   -4.4860 C   0  0  0  0  0  0  0  0  0  0  0  0
    3.8770   12.8740   -5.1010 C   0  0  0  0  0  0  0  0  0  0  0  0
    4.8200   13.5610   -4.3510 C   0  0  0  0  0  0  0  0  0  0  0  0
    5.0840   13.1730   -3.0410 C   0  0  0  0  0  0  0  0  0  0  0  0
    4.4040   12.1030   -2.4750 C   0  0  0  0  0  0  0  0  0  0  0  0
    3.4150   13.0050   -6.3620 N   0  0  0  0  0  0  0  0  0  0  0  0
    2.5100   12.0090   -6.4990 C   0  0  0  0  0  0  0  0  0  0  0  0
    2.3160   11.2310   -5.4170 N   0  0  0  0  0  0  0  0  0  0  0  0
    1.6520   11.8460   -7.9610 S   0  0  0  0  0  3  0  0  0  0  0  0
    0.7200   10.4400   -8.3270 C   0  0  0  0  0  0  0  0  0  0  0  0
    0.5200    9.2660   -7.3910 C   0  0  0  0  0  0  0  0  0  0  0  0
    0.5800    8.0950   -8.0410 N   0  0  0  0  0  0  0  0  0  0  0  0
    0.4320    6.9230   -7.4130 C   0  0  0  0  0  0  0  0  0  0  0  0
    0.1710    6.8500   -6.0490 C   0  0  0  0  0  0  0  0  0  0  0  0
    0.0730    8.0370   -5.3300 C   0  0  0  0  0  0  0  0  0  0  0  0
    0.2430    9.2710   -5.9990 C   0  0  0  0  0  0  0  0  0  0  0  0
    0.6010   12.9330   -7.9940 O   0  0  0  0  0  0  0  0  0  0  0  0
   -0.1850    7.9650   -3.9690 O   0  0  0  0  0  0  0  0  0  0  0  0
   -1.4220    7.4430   -3.4690 C   0  0  0  0  0  0  0  0  0  0  0  0
   -2.4260    8.5890   -3.4360 C   0  0  0  0  0  0  0  0  0  0  0  0
   -3.7950    8.1420   -2.9570 C   0  0  0  0  0  0  0  0  0  0  0  0
   -4.7430    8.9200   -3.6980 O   0  0  0  0  0  0  0  0  0  0  0  0
   -5.8490    8.1420   -4.1630 C   0  0  0  0  0  0  0  0  0  0  0  0
    0.1340   10.5440   -5.1780 C   0  0  0  0  0  0  0  0  0  0  0  0
  1  2  2  0
  1  6  1  0
  2  3  1  0
  2  9  1  0
  3  4  2  0
  3  7  1  0
  4  5  1  0
  5  6  2  0
  7  8  2  0
  8  9  1  0
  8 10  1  0
 10 11  1  0
 10 18  1  1
 11 12  1  0
 12 13  2  0
 12 17  1  0
 13 14  1  0
 14 15  2  0
 15 16  1  0
 16 17  2  0
 16 19  1  0
 17 25  1  0
 19 20  1  0
 20 21  1  0
 21 22  1  0
 22 23  1  0
 23 24  1  0
M  CHG  1  10   1
M  END
>  <_TriposChargeType>  (34) 
GAsT_HUCK

>  <PDB_ID>  (34) 
3pgl

$$$$
3pgl_ligand
     RDKit          3D

 25 27  0  0  0  0  0  0  0  0999 V2000
    3.4510   11.3720   -3.1790 C   0  0  0  0  0  0  0  0  0  0  0  0
    3.1650   11.7250   -4.4860 C   0  0  0  0  0  0  0  0  0  0  0  0
    3.8770   12.8740   -5.1010 C   0  0  0  0  0  0  0  0  0  0  0  0
    4.8200   13.5610   -4.3510 C   0  0  0  0  0  0  0  0  0  0  0  0
    5.0840   13.1730   -3.0410 C   0  0  0  0  0  0  0  0  0  0  0  0
    4.4040   12.1030   -2.4750 C   0  0  0  0  0  0  0  0  0  0  0  0
    3.4150   13.0050   -6.3620 N   0  0  0  0  0  0  0  0  0  0  0  0
    2.5100   12.0090   -6.4990 C   0  0  0  0  0  0  0  0  0  0  0  0
    2.3160   11.2310   -5.4170 N   0  0  0  0  0  0  0  0  0  0  0  0
    1.6520   11.8460   -7.9610 S   0  0  0  0  0  3  0  0  0  0  0  0
    0.7200   10.4400   -8.3270 C   0  0  0  0  0  0  0  0  0  0  0  0
    0.5200    9.2660   -7.3910 C   0  0  0  0  0  0  0  0  0  0  0  0
    0.5800    8.0950   -8.0410 N   0  0  0  0  0  0  0  0  0  0  0  0
    0.4320    6.9230   -7.4130 C   0  0  0  0  0  0  0  0  0  0  0  0
    0.1710    6.8500   -6.0490 C   0  0  0  0  0  0  0  0  0  0  0  0
    0.0730    8.0370   -5.3300 C   0  0  0  0  0  0  0  0  0  0  0  0
    0.2430    9.2710   -5.9990 C   0  0  0  0  0  0  0  0  0  0  0  0
    0.6010   12.9330   -7.9940 O   0  0  0  0  0  0  0  0  0  0  0  0
   -0.1850    7.9650   -3.9690 O   0  0  0  0  0  0  0  0  0  0  0  0
   -1.4220    7.4430   -3.4690 C   0  0  0  0  0  0  0  0  0  0  0  0
   -2.4260    8.5890   -3.4360 C   0  0  0  0  0  0  0  0  0  0  0  0
   -3.7950    8.1420   -2.9570 C   0  0  0  0  0  0  0  0  0  0  0  0
   -4.7430    8.9200   -3.6980 O   0  0  0  0  0  0  0  0  0  0  0  0
   -5.8490    8.1420   -4.1630 C   0  0  0  0  0  0  0  0  0  0  0  0
    0.1340   10.5440   -5.1780 C   0  0  0  0  0  0  0  0  0  0  0  0
  1  2  2  0
  1  6  1  0
  2  3  1  0
  2  9  1  0
  3  4  2  0
  3  7  1  0
  4  5  1  0
  5  6  2  0
  7  8  2  0
  8  9  1  0
  8 10  1  0
 10 11  1  0
 10 18  1  1
 11 12  1  0
 12 13  2  0
 12 17  1  0
 13 14  1  0
 14 15  2  0
 15 16  1  0
 16 17  2  0
 16 19  1  0
 17 25  1  0
 19 20  1  0
 20 21  1  0
 21 22  1  0
 22 23  1  0
 23 24  1  0
M  CHG  1  10   1
M  END
>  <_TriposChargeType>  (35) 
GAsT_HUCK

>  <PDB_ID>  (35) 
3pgl

$$$$
3pgl_ligand
     RDKit          3D

 25 27  0  0  0  0  0  0  0  0999 V2000
    3.4510   11.3720   -3.1790 C   0  0  0  0  0  0  0  0  0  0  0  0
    3.1650   11.7250   -4.4860 C   0  0  0  0  0  0  0  0  0  0  0  0
    3.8770   12.8740   -5.1010 C   0  0  0  0  0  0  0  0  0  0  0  0
    4.8200   13.5610   -4.3510 C   0  0  0  0  0  0  0  0  0  0  0  0
    5.0840   13.1730   -3.0410 C   0  0  0  0  0  0  0  0  0  0  0  0
    4.4040   12.1030   -2.4750 C   0  0  0  0  0  0  0  0  0  0  0  0
    3.4150   13.0050   -6.3620 N   0  0  0  0  0  0  0  0  0  0  0  0
    2.5100   12.0090   -6.4990 C   0  0  0  0  0  0  0  0  0  0  0  0
    2.3160   11.2310   -5.4170 N   0  0  0  0  0  0  0  0  0  0  0  0
    1.6520   11.8460   -7.9610 S   0  0  0  0  0  3  0  0  0  0  0  0
    0.7200   10.4400   -8.3270 C   0  0  0  0  0  0  0  0  0  0  0  0
    0.5200    9.2660   -7.3910 C   0  0  0  0  0  0  0  0  0  0  0  0
    0.5800    8.0950   -8.0410 N   0  0  0  0  0  0  0  0  0  0  0  0
    0.4320    6.9230   -7.4130 C   0  0  0  0  0  0  0  0  0  0  0  0
    0.1710    6.8500   -6.0490 C   0  0  0  0  0  0  0  0  0  0  0  0
    0.0730    8.0370   -5.3300 C   0  0  0  0  0  0  0  0  0  0  0  0
    0.2430    9.2710   -5.9990 C   0  0  0  0  0  0  0  0  0  0  0  0
    0.6010   12.9330   -7.9940 O   0  0  0  0  0  0  0  0  0  0  0  0
   -0.1850    7.9650   -3.9690 O   0  0  0  0  0  0  0  0  0  0  0  0
   -1.4220    7.4430   -3.4690 C   0  0  0  0  0  0  0  0  0  0  0  0
   -2.4260    8.5890   -3.4360 C   0  0  0  0  0  0  0  0  0  0  0  0
   -3.7950    8.1420   -2.9570 C   0  0  0  0  0  0  0  0  0  0  0  0
   -4.7430    8.9200   -3.6980 O   0  0  0  0  0  0  0  0  0  0  0  0
   -5.8490    8.1420   -4.1630 C   0  0  0  0  0  0  0  0  0  0  0  0
    0.1340   10.5440   -5.1780 C   0  0  0  0  0  0  0  0  0  0  0  0
  1  2  2  0
  1  6  1  0
  2  3  1  0
  2  9  1  0
  3  4  2  0
  3  7  1  0
  4  5  1  0
  5  6  2  0
  7  8  2  0
  8  9  1  0
  8 10  1  0
 10 11  1  0
 10 18  1  1
 11 12  1  0
 12 13  2  0
 12 17  1  0
 13 14  1  0
 14 15  2  0
 15 16  1  0
 16 17  2  0
 16 19  1  0
 17 25  1  0
 19 20  1  0
 20 21  1  0
 21 22  1  0
 22 23  1  0
 23 24  1  0
M  CHG  1  10   1
M  END
>  <_TriposChargeType>  (36) 
GAsT_HUCK

>  <PDB_ID>  (36) 
3pgl

$$$$
3pgl_ligand
     RDKit          3D

 25 27  0  0  0  0  0  0  0  0999 V2000
    3.4510   11.3720   -3.1790 C   0  0  0  0  0  0  0  0  0  0  0  0
    3.1650   11.7250   -4.4860 C   0  0  0  0  0  0  0  0  0  0  0  0
    3.8770   12.8740   -5.1010 C   0  0  0  0  0  0  0  0  0  0  0  0
    4.8200   13.5610   -4.3510 C   0  0  0  0  0  0  0  0  0  0  0  0
    5.0840   13.1730   -3.0410 C   0  0  0  0  0  0  0  0  0  0  0  0
    4.4040   12.1030   -2.4750 C   0  0  0  0  0  0  0  0  0  0  0  0
    3.4150   13.0050   -6.3620 N   0  0  0  0  0  0  0  0  0  0  0  0
    2.5100   12.0090   -6.4990 C   0  0  0  0  0  0  0  0  0  0  0  0
    2.3160   11.2310   -5.4170 N   0  0  0  0  0  0  0  0  0  0  0  0
    1.6520   11.8460   -7.9610 S   0  0  0  0  0  3  0  0  0  0  0  0
    0.7200   10.4400   -8.3270 C   0  0  0  0  0  0  0  0  0  0  0  0
    0.5200    9.2660   -7.3910 C   0  0  0  0  0  0  0  0  0  0  0  0
    0.5800    8.0950   -8.0410 N   0  0  0  0  0  0  0  0  0  0  0  0
    0.4320    6.9230   -7.4130 C   0  0  0  0  0  0  0  0  0  0  0  0
    0.1710    6.8500   -6.0490 C   0  0  0  0  0  0  0  0  0  0  0  0
    0.0730    8.0370   -5.3300 C   0  0  0  0  0  0  0  0  0  0  0  0
    0.2430    9.2710   -5.9990 C   0  0  0  0  0  0  0  0  0  0  0  0
    0.6010   12.9330   -7.9940 O   0  0  0  0  0  0  0  0  0  0  0  0
   -0.1850    7.9650   -3.9690 O   0  0  0  0  0  0  0  0  0  0  0  0
   -1.4220    7.4430   -3.4690 C   0  0  0  0  0  0  0  0  0  0  0  0
   -2.4260    8.5890   -3.4360 C   0  0  0  0  0  0  0  0  0  0  0  0
   -3.7950    8.1420   -2.9570 C   0  0  0  0  0  0  0  0  0  0  0  0
   -4.7430    8.9200   -3.6980 O   0  0  0  0  0  0  0  0  0  0  0  0
   -5.8490    8.1420   -4.1630 C   0  0  0  0  0  0  0  0  0  0  0  0
    0.1340   10.5440   -5.1780 C   0  0  0  0  0  0  0  0  0  0  0  0
  1  2  2  0
  1  6  1  0
  2  3  1  0
  2  9  1  0
  3  4  2  0
  3  7  1  0
  4  5  1  0
  5  6  2  0
  7  8  2  0
  8  9  1  0
  8 10  1  0
 10 11  1  0
 10 18  1  1
 11 12  1  0
 12 13  2  0
 12 17  1  0
 13 14  1  0
 14 15  2  0
 15 16  1  0
 16 17  2  0
 16 19  1  0
 17 25  1  0
 19 20  1  0
 20 21  1  0
 21 22  1  0
 22 23  1  0
 23 24  1  0
M  CHG  1  10   1
M  END
>  <_TriposChargeType>  (37) 
GAsT_HUCK

>  <PDB_ID>  (37) 
3pgl

$$$$
3pgl_ligand
     RDKit          3D

 25 27  0  0  0  0  0  0  0  0999 V2000
    3.4510   11.3720   -3.1790 C   0  0  0  0  0  0  0  0  0  0  0  0
    3.1650   11.7250   -4.4860 C   0  0  0  0  0  0  0  0  0  0  0  0
    3.8770   12.8740   -5.1010 C   0  0  0  0  0  0  0  0  0  0  0  0
    4.8200   13.5610   -4.3510 C   0  0  0  0  0  0  0  0  0  0  0  0
    5.0840   13.1730   -3.0410 C   0  0  0  0  0  0  0  0  0  0  0  0
    4.4040   12.1030   -2.4750 C   0  0  0  0  0  0  0  0  0  0  0  0
    3.4150   13.0050   -6.3620 N   0  0  0  0  0  0  0  0  0  0  0  0
    2.5100   12.0090   -6.4990 C   0  0  0  0  0  0  0  0  0  0  0  0
    2.3160   11.2310   -5.4170 N   0  0  0  0  0  0  0  0  0  0  0  0
    1.6520   11.8460   -7.9610 S   0  0  0  0  0  3  0  0  0  0  0  0
    0.7200   10.4400   -8.3270 C   0  0  0  0  0  0  0  0  0  0  0  0
    0.5200    9.2660   -7.3910 C   0  0  0  0  0  0  0  0  0  0  0  0
    0.5800    8.0950   -8.0410 N   0  0  0  0  0  0  0  0  0  0  0  0
    0.4320    6.9230   -7.4130 C   0  0  0  0  0  0  0  0  0  0  0  0
    0.1710    6.8500   -6.0490 C   0  0  0  0  0  0  0  0  0  0  0  0
    0.0730    8.0370   -5.3300 C   0  0  0  0  0  0  0  0  0  0  0  0
    0.2430    9.2710   -5.9990 C   0  0  0  0  0  0  0  0  0  0  0  0
    0.6010   12.9330   -7.9940 O   0  0  0  0  0  0  0  0  0  0  0  0
   -0.1850    7.9650   -3.9690 O   0  0  0  0  0  0  0  0  0  0  0  0
   -1.4220    7.4430   -3.4690 C   0  0  0  0  0  0  0  0  0  0  0  0
   -2.4260    8.5890   -3.4360 C   0  0  0  0  0  0  0  0  0  0  0  0
   -3.7950    8.1420   -2.9570 C   0  0  0  0  0  0  0  0  0  0  0  0
   -4.7430    8.9200   -3.6980 O   0  0  0  0  0  0  0  0  0  0  0  0
   -5.8490    8.1420   -4.1630 C   0  0  0  0  0  0  0  0  0  0  0  0
    0.1340   10.5440   -5.1780 C   0  0  0  0  0  0  0  0  0  0  0  0
  1  2  2  0
  1  6  1  0
  2  3  1  0
  2  9  1  0
  3  4  2  0
  3  7  1  0
  4  5  1  0
  5  6  2  0
  7  8  2  0
  8  9  1  0
  8 10  1  0
 10 11  1  0
 10 18  1  1
 11 12  1  0
 12 13  2  0
 12 17  1  0
 13 14  1  0
 14 15  2  0
 15 16  1  0
 16 17  2  0
 16 19  1  0
 17 25  1  0
 19 20  1  0
 20 21  1  0
 21 22  1  0
 22 23  1  0
 23 24  1  0
M  CHG  1  10   1
M  END
>  <_TriposChargeType>  (38) 
GAsT_HUCK

>  <PDB_ID>  (38) 
3pgl

$$$$
3pgl_ligand
     RDKit          3D

 25 27  0  0  0  0  0  0  0  0999 V2000
    3.4510   11.3720   -3.1790 C   0  0  0  0  0  0  0  0  0  0  0  0
    3.1650   11.7250   -4.4860 C   0  0  0  0  0  0  0  0  0  0  0  0
    3.8770   12.8740   -5.1010 C   0  0  0  0  0  0  0  0  0  0  0  0
    4.8200   13.5610   -4.3510 C   0  0  0  0  0  0  0  0  0  0  0  0
    5.0840   13.1730   -3.0410 C   0  0  0  0  0  0  0  0  0  0  0  0
    4.4040   12.1030   -2.4750 C   0  0  0  0  0  0  0  0  0  0  0  0
    3.4150   13.0050   -6.3620 N   0  0  0  0  0  0  0  0  0  0  0  0
    2.5100   12.0090   -6.4990 C   0  0  0  0  0  0  0  0  0  0  0  0
    2.3160   11.2310   -5.4170 N   0  0  0  0  0  0  0  0  0  0  0  0
    1.6520   11.8460   -7.9610 S   0  0  0  0  0  3  0  0  0  0  0  0
    0.7200   10.4400   -8.3270 C   0  0  0  0  0  0  0  0  0  0  0  0
    0.5200    9.2660   -7.3910 C   0  0  0  0  0  0  0  0  0  0  0  0
    0.5800    8.0950   -8.0410 N   0  0  0  0  0  0  0  0  0  0  0  0
    0.4320    6.9230   -7.4130 C   0  0  0  0  0  0  0  0  0  0  0  0
    0.1710    6.8500   -6.0490 C   0  0  0  0  0  0  0  0  0  0  0  0
    0.0730    8.0370   -5.3300 C   0  0  0  0  0  0  0  0  0  0  0  0
    0.2430    9.2710   -5.9990 C   0  0  0  0  0  0  0  0  0  0  0  0
    0.6010   12.9330   -7.9940 O   0  0  0  0  0  0  0  0  0  0  0  0
   -0.1850    7.9650   -3.9690 O   0  0  0  0  0  0  0  0  0  0  0  0
   -1.4220    7.4430   -3.4690 C   0  0  0  0  0  0  0  0  0  0  0  0
   -2.4260    8.5890   -3.4360 C   0  0  0  0  0  0  0  0  0  0  0  0
   -3.7950    8.1420   -2.9570 C   0  0  0  0  0  0  0  0  0  0  0  0
   -4.7430    8.9200   -3.6980 O   0  0  0  0  0  0  0  0  0  0  0  0
   -5.8490    8.1420   -4.1630 C   0  0  0  0  0  0  0  0  0  0  0  0
    0.1340   10.5440   -5.1780 C   0  0  0  0  0  0  0  0  0  0  0  0
  1  2  2  0
  1  6  1  0
  2  3  1  0
  2  9  1  0
  3  4  2  0
  3  7  1  0
  4  5  1  0
  5  6  2  0
  7  8  2  0
  8  9  1  0
  8 10  1  0
 10 11  1  0
 10 18  1  1
 11 12  1  0
 12 13  2  0
 12 17  1  0
 13 14  1  0
 14 15  2  0
 15 16  1  0
 16 17  2  0
 16 19  1  0
 17 25  1  0
 19 20  1  0
 20 21  1  0
 21 22  1  0
 22 23  1  0
 23 24  1  0
M  CHG  1  10   1
M  END
>  <_TriposChargeType>  (39) 
GAsT_HUCK

>  <PDB_ID>  (39) 
3pgl

$$$$
3pgl_ligand
     RDKit          3D

 25 27  0  0  0  0  0  0  0  0999 V2000
    3.4510   11.3720   -3.1790 C   0  0  0  0  0  0  0  0  0  0  0  0
    3.1650   11.7250   -4.4860 C   0  0  0  0  0  0  0  0  0  0  0  0
    3.8770   12.8740   -5.1010 C   0  0  0  0  0  0  0  0  0  0  0  0
    4.8200   13.5610   -4.3510 C   0  0  0  0  0  0  0  0  0  0  0  0
    5.0840   13.1730   -3.0410 C   0  0  0  0  0  0  0  0  0  0  0  0
    4.4040   12.1030   -2.4750 C   0  0  0  0  0  0  0  0  0  0  0  0
    3.4150   13.0050   -6.3620 N   0  0  0  0  0  0  0  0  0  0  0  0
    2.5100   12.0090   -6.4990 C   0  0  0  0  0  0  0  0  0  0  0  0
    2.3160   11.2310   -5.4170 N   0  0  0  0  0  0  0  0  0  0  0  0
    1.6520   11.8460   -7.9610 S   0  0  0  0  0  3  0  0  0  0  0  0
    0.7200   10.4400   -8.3270 C   0  0  0  0  0  0  0  0  0  0  0  0
    0.5200    9.2660   -7.3910 C   0  0  0  0  0  0  0  0  0  0  0  0
    0.5800    8.0950   -8.0410 N   0  0  0  0  0  0  0  0  0  0  0  0
    0.4320    6.9230   -7.4130 C   0  0  0  0  0  0  0  0  0  0  0  0
    0.1710    6.8500   -6.0490 C   0  0  0  0  0  0  0  0  0  0  0  0
    0.0730    8.0370   -5.3300 C   0  0  0  0  0  0  0  0  0  0  0  0
    0.2430    9.2710   -5.9990 C   0  0  0  0  0  0  0  0  0  0  0  0
    0.6010   12.9330   -7.9940 O   0  0  0  0  0  0  0  0  0  0  0  0
   -0.1850    7.9650   -3.9690 O   0  0  0  0  0  0  0  0  0  0  0  0
   -1.4220    7.4430   -3.4690 C   0  0  0  0  0  0  0  0  0  0  0  0
   -2.4260    8.5890   -3.4360 C   0  0  0  0  0  0  0  0  0  0  0  0
   -3.7950    8.1420   -2.9570 C   0  0  0  0  0  0  0  0  0  0  0  0
   -4.7430    8.9200   -3.6980 O   0  0  0  0  0  0  0  0  0  0  0  0
   -5.8490    8.1420   -4.1630 C   0  0  0  0  0  0  0  0  0  0  0  0
    0.1340   10.5440   -5.1780 C   0  0  0  0  0  0  0  0  0  0  0  0
  1  2  2  0
  1  6  1  0
  2  3  1  0
  2  9  1  0
  3  4  2  0
  3  7  1  0
  4  5  1  0
  5  6  2  0
  7  8  2  0
  8  9  1  0
  8 10  1  0
 10 11  1  0
 10 18  1  1
 11 12  1  0
 12 13  2  0
 12 17  1  0
 13 14  1  0
 14 15  2  0
 15 16  1  0
 16 17  2  0
 16 19  1  0
 17 25  1  0
 19 20  1  0
 20 21  1  0
 21 22  1  0
 22 23  1  0
 23 24  1  0
M  CHG  1  10   1
M  END
>  <_TriposChargeType>  (40) 
GAsT_HUCK

>  <PDB_ID>  (40) 
3pgl

$$$$
3pgl_ligand
     RDKit          3D

 25 27  0  0  0  0  0  0  0  0999 V2000
    3.4510   11.3720   -3.1790 C   0  0  0  0  0  0  0  0  0  0  0  0
    3.1650   11.7250   -4.4860 C   0  0  0  0  0  0  0  0  0  0  0  0
    3.8770   12.8740   -5.1010 C   0  0  0  0  0  0  0  0  0  0  0  0
    4.8200   13.5610   -4.3510 C   0  0  0  0  0  0  0  0  0  0  0  0
    5.0840   13.1730   -3.0410 C   0  0  0  0  0  0  0  0  0  0  0  0
    4.4040   12.1030   -2.4750 C   0  0  0  0  0  0  0  0  0  0  0  0
    3.4150   13.0050   -6.3620 N   0  0  0  0  0  0  0  0  0  0  0  0
    2.5100   12.0090   -6.4990 C   0  0  0  0  0  0  0  0  0  0  0  0
    2.3160   11.2310   -5.4170 N   0  0  0  0  0  0  0  0  0  0  0  0
    1.6520   11.8460   -7.9610 S   0  0  0  0  0  3  0  0  0  0  0  0
    0.7200   10.4400   -8.3270 C   0  0  0  0  0  0  0  0  0  0  0  0
    0.5200    9.2660   -7.3910 C   0  0  0  0  0  0  0  0  0  0  0  0
    0.5800    8.0950   -8.0410 N   0  0  0  0  0  0  0  0  0  0  0  0
    0.4320    6.9230   -7.4130 C   0  0  0  0  0  0  0  0  0  0  0  0
    0.1710    6.8500   -6.0490 C   0  0  0  0  0  0  0  0  0  0  0  0
    0.0730    8.0370   -5.3300 C   0  0  0  0  0  0  0  0  0  0  0  0
    0.2430    9.2710   -5.9990 C   0  0  0  0  0  0  0  0  0  0  0  0
    0.6010   12.9330   -7.9940 O   0  0  0  0  0  0  0  0  0  0  0  0
   -0.1850    7.9650   -3.9690 O   0  0  0  0  0  0  0  0  0  0  0  0
   -1.4220    7.4430   -3.4690 C   0  0  0  0  0  0  0  0  0  0  0  0
   -2.4260    8.5890   -3.4360 C   0  0  0  0  0  0  0  0  0  0  0  0
   -3.7950    8.1420   -2.9570 C   0  0  0  0  0  0  0  0  0  0  0  0
   -4.7430    8.9200   -3.6980 O   0  0  0  0  0  0  0  0  0  0  0  0
   -5.8490    8.1420   -4.1630 C   0  0  0  0  0  0  0  0  0  0  0  0
    0.1340   10.5440   -5.1780 C   0  0  0  0  0  0  0  0  0  0  0  0
  1  2  2  0
  1  6  1  0
  2  3  1  0
  2  9  1  0
  3  4  2  0
  3  7  1  0
  4  5  1  0
  5  6  2  0
  7  8  2  0
  8  9  1  0
  8 10  1  0
 10 11  1  0
 10 18  1  1
 11 12  1  0
 12 13  2  0
 12 17  1  0
 13 14  1  0
 14 15  2  0
 15 16  1  0
 16 17  2  0
 16 19  1  0
 17 25  1  0
 19 20  1  0
 20 21  1  0
 21 22  1  0
 22 23  1  0
 23 24  1  0
M  CHG  1  10   1
M  END
>  <_TriposChargeType>  (41) 
GAsT_HUCK

>  <PDB_ID>  (41) 
3pgl

$$$$
3pgl_ligand
     RDKit          3D

 25 27  0  0  0  0  0  0  0  0999 V2000
    3.4510   11.3720   -3.1790 C   0  0  0  0  0  0  0  0  0  0  0  0
    3.1650   11.7250   -4.4860 C   0  0  0  0  0  0  0  0  0  0  0  0
    3.8770   12.8740   -5.1010 C   0  0  0  0  0  0  0  0  0  0  0  0
    4.8200   13.5610   -4.3510 C   0  0  0  0  0  0  0  0  0  0  0  0
    5.0840   13.1730   -3.0410 C   0  0  0  0  0  0  0  0  0  0  0  0
    4.4040   12.1030   -2.4750 C   0  0  0  0  0  0  0  0  0  0  0  0
    3.4150   13.0050   -6.3620 N   0  0  0  0  0  0  0  0  0  0  0  0
    2.5100   12.0090   -6.4990 C   0  0  0  0  0  0  0  0  0  0  0  0
    2.3160   11.2310   -5.4170 N   0  0  0  0  0  0  0  0  0  0  0  0
    1.6520   11.8460   -7.9610 S   0  0  0  0  0  3  0  0  0  0  0  0
    0.7200   10.4400   -8.3270 C   0  0  0  0  0  0  0  0  0  0  0  0
    0.5200    9.2660   -7.3910 C   0  0  0  0  0  0  0  0  0  0  0  0
    0.5800    8.0950   -8.0410 N   0  0  0  0  0  0  0  0  0  0  0  0
    0.4320    6.9230   -7.4130 C   0  0  0  0  0  0  0  0  0  0  0  0
    0.1710    6.8500   -6.0490 C   0  0  0  0  0  0  0  0  0  0  0  0
    0.0730    8.0370   -5.3300 C   0  0  0  0  0  0  0  0  0  0  0  0
    0.2430    9.2710   -5.9990 C   0  0  0  0  0  0  0  0  0  0  0  0
    0.6010   12.9330   -7.9940 O   0  0  0  0  0  0  0  0  0  0  0  0
   -0.1850    7.9650   -3.9690 O   0  0  0  0  0  0  0  0  0  0  0  0
   -1.4220    7.4430   -3.4690 C   0  0  0  0  0  0  0  0  0  0  0  0
   -2.4260    8.5890   -3.4360 C   0  0  0  0  0  0  0  0  0  0  0  0
   -3.7950    8.1420   -2.9570 C   0  0  0  0  0  0  0  0  0  0  0  0
   -4.7430    8.9200   -3.6980 O   0  0  0  0  0  0  0  0  0  0  0  0
   -5.8490    8.1420   -4.1630 C   0  0  0  0  0  0  0  0  0  0  0  0
    0.1340   10.5440   -5.1780 C   0  0  0  0  0  0  0  0  0  0  0  0
  1  2  2  0
  1  6  1  0
  2  3  1  0
  2  9  1  0
  3  4  2  0
  3  7  1  0
  4  5  1  0
  5  6  2  0
  7  8  2  0
  8  9  1  0
  8 10  1  0
 10 11  1  0
 10 18  1  1
 11 12  1  0
 12 13  2  0
 12 17  1  0
 13 14  1  0
 14 15  2  0
 15 16  1  0
 16 17  2  0
 16 19  1  0
 17 25  1  0
 19 20  1  0
 20 21  1  0
 21 22  1  0
 22 23  1  0
 23 24  1  0
M  CHG  1  10   1
M  END
>  <_TriposChargeType>  (42) 
GAsT_HUCK

>  <PDB_ID>  (42) 
3pgl

$$$$
3pgl_ligand
     RDKit          3D

 25 27  0  0  0  0  0  0  0  0999 V2000
    3.4510   11.3720   -3.1790 C   0  0  0  0  0  0  0  0  0  0  0  0
    3.1650   11.7250   -4.4860 C   0  0  0  0  0  0  0  0  0  0  0  0
    3.8770   12.8740   -5.1010 C   0  0  0  0  0  0  0  0  0  0  0  0
    4.8200   13.5610   -4.3510 C   0  0  0  0  0  0  0  0  0  0  0  0
    5.0840   13.1730   -3.0410 C   0  0  0  0  0  0  0  0  0  0  0  0
    4.4040   12.1030   -2.4750 C   0  0  0  0  0  0  0  0  0  0  0  0
    3.4150   13.0050   -6.3620 N   0  0  0  0  0  0  0  0  0  0  0  0
    2.5100   12.0090   -6.4990 C   0  0  0  0  0  0  0  0  0  0  0  0
    2.3160   11.2310   -5.4170 N   0  0  0  0  0  0  0  0  0  0  0  0
    1.6520   11.8460   -7.9610 S   0  0  0  0  0  3  0  0  0  0  0  0
    0.7200   10.4400   -8.3270 C   0  0  0  0  0  0  0  0  0  0  0  0
    0.5200    9.2660   -7.3910 C   0  0  0  0  0  0  0  0  0  0  0  0
    0.5800    8.0950   -8.0410 N   0  0  0  0  0  0  0  0  0  0  0  0
    0.4320    6.9230   -7.4130 C   0  0  0  0  0  0  0  0  0  0  0  0
    0.1710    6.8500   -6.0490 C   0  0  0  0  0  0  0  0  0  0  0  0
    0.0730    8.0370   -5.3300 C   0  0  0  0  0  0  0  0  0  0  0  0
    0.2430    9.2710   -5.9990 C   0  0  0  0  0  0  0  0  0  0  0  0
    0.6010   12.9330   -7.9940 O   0  0  0  0  0  0  0  0  0  0  0  0
   -0.1850    7.9650   -3.9690 O   0  0  0  0  0  0  0  0  0  0  0  0
   -1.4220    7.4430   -3.4690 C   0  0  0  0  0  0  0  0  0  0  0  0
   -2.4260    8.5890   -3.4360 C   0  0  0  0  0  0  0  0  0  0  0  0
   -3.7950    8.1420   -2.9570 C   0  0  0  0  0  0  0  0  0  0  0  0
   -4.7430    8.9200   -3.6980 O   0  0  0  0  0  0  0  0  0  0  0  0
   -5.8490    8.1420   -4.1630 C   0  0  0  0  0  0  0  0  0  0  0  0
    0.1340   10.5440   -5.1780 C   0  0  0  0  0  0  0  0  0  0  0  0
  1  2  2  0
  1  6  1  0
  2  3  1  0
  2  9  1  0
  3  4  2  0
  3  7  1  0
  4  5  1  0
  5  6  2  0
  7  8  2  0
  8  9  1  0
  8 10  1  0
 10 11  1  0
 10 18  1  1
 11 12  1  0
 12 13  2  0
 12 17  1  0
 13 14  1  0
 14 15  2  0
 15 16  1  0
 16 17  2  0
 16 19  1  0
 17 25  1  0
 19 20  1  0
 20 21  1  0
 21 22  1  0
 22 23  1  0
 23 24  1  0
M  CHG  1  10   1
M  END
>  <_TriposChargeType>  (43) 
GAsT_HUCK

>  <PDB_ID>  (43) 
3pgl

$$$$
3pgl_ligand
     RDKit          3D

 25 27  0  0  0  0  0  0  0  0999 V2000
    3.4510   11.3720   -3.1790 C   0  0  0  0  0  0  0  0  0  0  0  0
    3.1650   11.7250   -4.4860 C   0  0  0  0  0  0  0  0  0  0  0  0
    3.8770   12.8740   -5.1010 C   0  0  0  0  0  0  0  0  0  0  0  0
    4.8200   13.5610   -4.3510 C   0  0  0  0  0  0  0  0  0  0  0  0
    5.0840   13.1730   -3.0410 C   0  0  0  0  0  0  0  0  0  0  0  0
    4.4040   12.1030   -2.4750 C   0  0  0  0  0  0  0  0  0  0  0  0
    3.4150   13.0050   -6.3620 N   0  0  0  0  0  0  0  0  0  0  0  0
    2.5100   12.0090   -6.4990 C   0  0  0  0  0  0  0  0  0  0  0  0
    2.3160   11.2310   -5.4170 N   0  0  0  0  0  0  0  0  0  0  0  0
    1.6520   11.8460   -7.9610 S   0  0  0  0  0  3  0  0  0  0  0  0
    0.7200   10.4400   -8.3270 C   0  0  0  0  0  0  0  0  0  0  0  0
    0.5200    9.2660   -7.3910 C   0  0  0  0  0  0  0  0  0  0  0  0
    0.5800    8.0950   -8.0410 N   0  0  0  0  0  0  0  0  0  0  0  0
    0.4320    6.9230   -7.4130 C   0  0  0  0  0  0  0  0  0  0  0  0
    0.1710    6.8500   -6.0490 C   0  0  0  0  0  0  0  0  0  0  0  0
    0.0730    8.0370   -5.3300 C   0  0  0  0  0  0  0  0  0  0  0  0
    0.2430    9.2710   -5.9990 C   0  0  0  0  0  0  0  0  0  0  0  0
    0.6010   12.9330   -7.9940 O   0  0  0  0  0  0  0  0  0  0  0  0
   -0.1850    7.9650   -3.9690 O   0  0  0  0  0  0  0  0  0  0  0  0
   -1.4220    7.4430   -3.4690 C   0  0  0  0  0  0  0  0  0  0  0  0
   -2.4260    8.5890   -3.4360 C   0  0  0  0  0  0  0  0  0  0  0  0
   -3.7950    8.1420   -2.9570 C   0  0  0  0  0  0  0  0  0  0  0  0
   -4.7430    8.9200   -3.6980 O   0  0  0  0  0  0  0  0  0  0  0  0
   -5.8490    8.1420   -4.1630 C   0  0  0  0  0  0  0  0  0  0  0  0
    0.1340   10.5440   -5.1780 C   0  0  0  0  0  0  0  0  0  0  0  0
  1  2  2  0
  1  6  1  0
  2  3  1  0
  2  9  1  0
  3  4  2  0
  3  7  1  0
  4  5  1  0
  5  6  2  0
  7  8  2  0
  8  9  1  0
  8 10  1  0
 10 11  1  0
 10 18  1  1
 11 12  1  0
 12 13  2  0
 12 17  1  0
 13 14  1  0
 14 15  2  0
 15 16  1  0
 16 17  2  0
 16 19  1  0
 17 25  1  0
 19 20  1  0
 20 21  1  0
 21 22  1  0
 22 23  1  0
 23 24  1  0
M  CHG  1  10   1
M  END
>  <_TriposChargeType>  (44) 
GAsT_HUCK

>  <PDB_ID>  (44) 
3pgl

$$$$
3pgl_ligand
     RDKit          3D

 25 27  0  0  0  0  0  0  0  0999 V2000
    3.4510   11.3720   -3.1790 C   0  0  0  0  0  0  0  0  0  0  0  0
    3.1650   11.7250   -4.4860 C   0  0  0  0  0  0  0  0  0  0  0  0
    3.8770   12.8740   -5.1010 C   0  0  0  0  0  0  0  0  0  0  0  0
    4.8200   13.5610   -4.3510 C   0  0  0  0  0  0  0  0  0  0  0  0
    5.0840   13.1730   -3.0410 C   0  0  0  0  0  0  0  0  0  0  0  0
    4.4040   12.1030   -2.4750 C   0  0  0  0  0  0  0  0  0  0  0  0
    3.4150   13.0050   -6.3620 N   0  0  0  0  0  0  0  0  0  0  0  0
    2.5100   12.0090   -6.4990 C   0  0  0  0  0  0  0  0  0  0  0  0
    2.3160   11.2310   -5.4170 N   0  0  0  0  0  0  0  0  0  0  0  0
    1.6520   11.8460   -7.9610 S   0  0  0  0  0  3  0  0  0  0  0  0
    0.7200   10.4400   -8.3270 C   0  0  0  0  0  0  0  0  0  0  0  0
    0.5200    9.2660   -7.3910 C   0  0  0  0  0  0  0  0  0  0  0  0
    0.5800    8.0950   -8.0410 N   0  0  0  0  0  0  0  0  0  0  0  0
    0.4320    6.9230   -7.4130 C   0  0  0  0  0  0  0  0  0  0  0  0
    0.1710    6.8500   -6.0490 C   0  0  0  0  0  0  0  0  0  0  0  0
    0.0730    8.0370   -5.3300 C   0  0  0  0  0  0  0  0  0  0  0  0
    0.2430    9.2710   -5.9990 C   0  0  0  0  0  0  0  0  0  0  0  0
    0.6010   12.9330   -7.9940 O   0  0  0  0  0  0  0  0  0  0  0  0
   -0.1850    7.9650   -3.9690 O   0  0  0  0  0  0  0  0  0  0  0  0
   -1.4220    7.4430   -3.4690 C   0  0  0  0  0  0  0  0  0  0  0  0
   -2.4260    8.5890   -3.4360 C   0  0  0  0  0  0  0  0  0  0  0  0
   -3.7950    8.1420   -2.9570 C   0  0  0  0  0  0  0  0  0  0  0  0
   -4.7430    8.9200   -3.6980 O   0  0  0  0  0  0  0  0  0  0  0  0
   -5.8490    8.1420   -4.1630 C   0  0  0  0  0  0  0  0  0  0  0  0
    0.1340   10.5440   -5.1780 C   0  0  0  0  0  0  0  0  0  0  0  0
  1  2  2  0
  1  6  1  0
  2  3  1  0
  2  9  1  0
  3  4  2  0
  3  7  1  0
  4  5  1  0
  5  6  2  0
  7  8  2  0
  8  9  1  0
  8 10  1  0
 10 11  1  0
 10 18  1  1
 11 12  1  0
 12 13  2  0
 12 17  1  0
 13 14  1  0
 14 15  2  0
 15 16  1  0
 16 17  2  0
 16 19  1  0
 17 25  1  0
 19 20  1  0
 20 21  1  0
 21 22  1  0
 22 23  1  0
 23 24  1  0
M  CHG  1  10   1
M  END
>  <_TriposChargeType>  (45) 
GAsT_HUCK

>  <PDB_ID>  (45) 
3pgl

$$$$
3pgl_ligand
     RDKit          3D

 25 27  0  0  0  0  0  0  0  0999 V2000
    3.4510   11.3720   -3.1790 C   0  0  0  0  0  0  0  0  0  0  0  0
    3.1650   11.7250   -4.4860 C   0  0  0  0  0  0  0  0  0  0  0  0
    3.8770   12.8740   -5.1010 C   0  0  0  0  0  0  0  0  0  0  0  0
    4.8200   13.5610   -4.3510 C   0  0  0  0  0  0  0  0  0  0  0  0
    5.0840   13.1730   -3.0410 C   0  0  0  0  0  0  0  0  0  0  0  0
    4.4040   12.1030   -2.4750 C   0  0  0  0  0  0  0  0  0  0  0  0
    3.4150   13.0050   -6.3620 N   0  0  0  0  0  0  0  0  0  0  0  0
    2.5100   12.0090   -6.4990 C   0  0  0  0  0  0  0  0  0  0  0  0
    2.3160   11.2310   -5.4170 N   0  0  0  0  0  0  0  0  0  0  0  0
    1.6520   11.8460   -7.9610 S   0  0  0  0  0  3  0  0  0  0  0  0
    0.7200   10.4400   -8.3270 C   0  0  0  0  0  0  0  0  0  0  0  0
    0.5200    9.2660   -7.3910 C   0  0  0  0  0  0  0  0  0  0  0  0
    0.5800    8.0950   -8.0410 N   0  0  0  0  0  0  0  0  0  0  0  0
    0.4320    6.9230   -7.4130 C   0  0  0  0  0  0  0  0  0  0  0  0
    0.1710    6.8500   -6.0490 C   0  0  0  0  0  0  0  0  0  0  0  0
    0.0730    8.0370   -5.3300 C   0  0  0  0  0  0  0  0  0  0  0  0
    0.2430    9.2710   -5.9990 C   0  0  0  0  0  0  0  0  0  0  0  0
    0.6010   12.9330   -7.9940 O   0  0  0  0  0  0  0  0  0  0  0  0
   -0.1850    7.9650   -3.9690 O   0  0  0  0  0  0  0  0  0  0  0  0
   -1.4220    7.4430   -3.4690 C   0  0  0  0  0  0  0  0  0  0  0  0
   -2.4260    8.5890   -3.4360 C   0  0  0  0  0  0  0  0  0  0  0  0
   -3.7950    8.1420   -2.9570 C   0  0  0  0  0  0  0  0  0  0  0  0
   -4.7430    8.9200   -3.6980 O   0  0  0  0  0  0  0  0  0  0  0  0
   -5.8490    8.1420   -4.1630 C   0  0  0  0  0  0  0  0  0  0  0  0
    0.1340   10.5440   -5.1780 C   0  0  0  0  0  0  0  0  0  0  0  0
  1  2  2  0
  1  6  1  0
  2  3  1  0
  2  9  1  0
  3  4  2  0
  3  7  1  0
  4  5  1  0
  5  6  2  0
  7  8  2  0
  8  9  1  0
  8 10  1  0
 10 11  1  0
 10 18  1  1
 11 12  1  0
 12 13  2  0
 12 17  1  0
 13 14  1  0
 14 15  2  0
 15 16  1  0
 16 17  2  0
 16 19  1  0
 17 25  1  0
 19 20  1  0
 20 21  1  0
 21 22  1  0
 22 23  1  0
 23 24  1  0
M  CHG  1  10   1
M  END
>  <_TriposChargeType>  (46) 
GAsT_HUCK

>  <PDB_ID>  (46) 
3pgl

$$$$
3pgl_ligand
     RDKit          3D

 25 27  0  0  0  0  0  0  0  0999 V2000
    3.4510   11.3720   -3.1790 C   0  0  0  0  0  0  0  0  0  0  0  0
    3.1650   11.7250   -4.4860 C   0  0  0  0  0  0  0  0  0  0  0  0
    3.8770   12.8740   -5.1010 C   0  0  0  0  0  0  0  0  0  0  0  0
    4.8200   13.5610   -4.3510 C   0  0  0  0  0  0  0  0  0  0  0  0
    5.0840   13.1730   -3.0410 C   0  0  0  0  0  0  0  0  0  0  0  0
    4.4040   12.1030   -2.4750 C   0  0  0  0  0  0  0  0  0  0  0  0
    3.4150   13.0050   -6.3620 N   0  0  0  0  0  0  0  0  0  0  0  0
    2.5100   12.0090   -6.4990 C   0  0  0  0  0  0  0  0  0  0  0  0
    2.3160   11.2310   -5.4170 N   0  0  0  0  0  0  0  0  0  0  0  0
    1.6520   11.8460   -7.9610 S   0  0  0  0  0  3  0  0  0  0  0  0
    0.7200   10.4400   -8.3270 C   0  0  0  0  0  0  0  0  0  0  0  0
    0.5200    9.2660   -7.3910 C   0  0  0  0  0  0  0  0  0  0  0  0
    0.5800    8.0950   -8.0410 N   0  0  0  0  0  0  0  0  0  0  0  0
    0.4320    6.9230   -7.4130 C   0  0  0  0  0  0  0  0  0  0  0  0
    0.1710    6.8500   -6.0490 C   0  0  0  0  0  0  0  0  0  0  0  0
    0.0730    8.0370   -5.3300 C   0  0  0  0  0  0  0  0  0  0  0  0
    0.2430    9.2710   -5.9990 C   0  0  0  0  0  0  0  0  0  0  0  0
    0.6010   12.9330   -7.9940 O   0  0  0  0  0  0  0  0  0  0  0  0
   -0.1850    7.9650   -3.9690 O   0  0  0  0  0  0  0  0  0  0  0  0
   -1.4220    7.4430   -3.4690 C   0  0  0  0  0  0  0  0  0  0  0  0
   -2.4260    8.5890   -3.4360 C   0  0  0  0  0  0  0  0  0  0  0  0
   -3.7950    8.1420   -2.9570 C   0  0  0  0  0  0  0  0  0  0  0  0
   -4.7430    8.9200   -3.6980 O   0  0  0  0  0  0  0  0  0  0  0  0
   -5.8490    8.1420   -4.1630 C   0  0  0  0  0  0  0  0  0  0  0  0
    0.1340   10.5440   -5.1780 C   0  0  0  0  0  0  0  0  0  0  0  0
  1  2  2  0
  1  6  1  0
  2  3  1  0
  2  9  1  0
  3  4  2  0
  3  7  1  0
  4  5  1  0
  5  6  2  0
  7  8  2  0
  8  9  1  0
  8 10  1  0
 10 11  1  0
 10 18  1  1
 11 12  1  0
 12 13  2  0
 12 17  1  0
 13 14  1  0
 14 15  2  0
 15 16  1  0
 16 17  2  0
 16 19  1  0
 17 25  1  0
 19 20  1  0
 20 21  1  0
 21 22  1  0
 22 23  1  0
 23 24  1  0
M  CHG  1  10   1
M  END
>  <_TriposChargeType>  (47) 
GAsT_HUCK

>  <PDB_ID>  (47) 
3pgl

$$$$
3pgl_ligand
     RDKit          3D

 25 27  0  0  0  0  0  0  0  0999 V2000
    3.4510   11.3720   -3.1790 C   0  0  0  0  0  0  0  0  0  0  0  0
    3.1650   11.7250   -4.4860 C   0  0  0  0  0  0  0  0  0  0  0  0
    3.8770   12.8740   -5.1010 C   0  0  0  0  0  0  0  0  0  0  0  0
    4.8200   13.5610   -4.3510 C   0  0  0  0  0  0  0  0  0  0  0  0
    5.0840   13.1730   -3.0410 C   0  0  0  0  0  0  0  0  0  0  0  0
    4.4040   12.1030   -2.4750 C   0  0  0  0  0  0  0  0  0  0  0  0
    3.4150   13.0050   -6.3620 N   0  0  0  0  0  0  0  0  0  0  0  0
    2.5100   12.0090   -6.4990 C   0  0  0  0  0  0  0  0  0  0  0  0
    2.3160   11.2310   -5.4170 N   0  0  0  0  0  0  0  0  0  0  0  0
    1.6520   11.8460   -7.9610 S   0  0  0  0  0  3  0  0  0  0  0  0
    0.7200   10.4400   -8.3270 C   0  0  0  0  0  0  0  0  0  0  0  0
    0.5200    9.2660   -7.3910 C   0  0  0  0  0  0  0  0  0  0  0  0
    0.5800    8.0950   -8.0410 N   0  0  0  0  0  0  0  0  0  0  0  0
    0.4320    6.9230   -7.4130 C   0  0  0  0  0  0  0  0  0  0  0  0
    0.1710    6.8500   -6.0490 C   0  0  0  0  0  0  0  0  0  0  0  0
    0.0730    8.0370   -5.3300 C   0  0  0  0  0  0  0  0  0  0  0  0
    0.2430    9.2710   -5.9990 C   0  0  0  0  0  0  0  0  0  0  0  0
    0.6010   12.9330   -7.9940 O   0  0  0  0  0  0  0  0  0  0  0  0
   -0.1850    7.9650   -3.9690 O   0  0  0  0  0  0  0  0  0  0  0  0
   -1.4220    7.4430   -3.4690 C   0  0  0  0  0  0  0  0  0  0  0  0
   -2.4260    8.5890   -3.4360 C   0  0  0  0  0  0  0  0  0  0  0  0
   -3.7950    8.1420   -2.9570 C   0  0  0  0  0  0  0  0  0  0  0  0
   -4.7430    8.9200   -3.6980 O   0  0  0  0  0  0  0  0  0  0  0  0
   -5.8490    8.1420   -4.1630 C   0  0  0  0  0  0  0  0  0  0  0  0
    0.1340   10.5440   -5.1780 C   0  0  0  0  0  0  0  0  0  0  0  0
  1  2  2  0
  1  6  1  0
  2  3  1  0
  2  9  1  0
  3  4  2  0
  3  7  1  0
  4  5  1  0
  5  6  2  0
  7  8  2  0
  8  9  1  0
  8 10  1  0
 10 11  1  0
 10 18  1  1
 11 12  1  0
 12 13  2  0
 12 17  1  0
 13 14  1  0
 14 15  2  0
 15 16  1  0
 16 17  2  0
 16 19  1  0
 17 25  1  0
 19 20  1  0
 20 21  1  0
 21 22  1  0
 22 23  1  0
 23 24  1  0
M  CHG  1  10   1
M  END
>  <_TriposChargeType>  (48) 
GAsT_HUCK

>  <PDB_ID>  (48) 
3pgl

$$$$
3pgl_ligand
     RDKit          3D

 25 27  0  0  0  0  0  0  0  0999 V2000
    3.4510   11.3720   -3.1790 C   0  0  0  0  0  0  0  0  0  0  0  0
    3.1650   11.7250   -4.4860 C   0  0  0  0  0  0  0  0  0  0  0  0
    3.8770   12.8740   -5.1010 C   0  0  0  0  0  0  0  0  0  0  0  0
    4.8200   13.5610   -4.3510 C   0  0  0  0  0  0  0  0  0  0  0  0
    5.0840   13.1730   -3.0410 C   0  0  0  0  0  0  0  0  0  0  0  0
    4.4040   12.1030   -2.4750 C   0  0  0  0  0  0  0  0  0  0  0  0
    3.4150   13.0050   -6.3620 N   0  0  0  0  0  0  0  0  0  0  0  0
    2.5100   12.0090   -6.4990 C   0  0  0  0  0  0  0  0  0  0  0  0
    2.3160   11.2310   -5.4170 N   0  0  0  0  0  0  0  0  0  0  0  0
    1.6520   11.8460   -7.9610 S   0  0  0  0  0  3  0  0  0  0  0  0
    0.7200   10.4400   -8.3270 C   0  0  0  0  0  0  0  0  0  0  0  0
    0.5200    9.2660   -7.3910 C   0  0  0  0  0  0  0  0  0  0  0  0
    0.5800    8.0950   -8.0410 N   0  0  0  0  0  0  0  0  0  0  0  0
    0.4320    6.9230   -7.4130 C   0  0  0  0  0  0  0  0  0  0  0  0
    0.1710    6.8500   -6.0490 C   0  0  0  0  0  0  0  0  0  0  0  0
    0.0730    8.0370   -5.3300 C   0  0  0  0  0  0  0  0  0  0  0  0
    0.2430    9.2710   -5.9990 C   0  0  0  0  0  0  0  0  0  0  0  0
    0.6010   12.9330   -7.9940 O   0  0  0  0  0  0  0  0  0  0  0  0
   -0.1850    7.9650   -3.9690 O   0  0  0  0  0  0  0  0  0  0  0  0
   -1.4220    7.4430   -3.4690 C   0  0  0  0  0  0  0  0  0  0  0  0
   -2.4260    8.5890   -3.4360 C   0  0  0  0  0  0  0  0  0  0  0  0
   -3.7950    8.1420   -2.9570 C   0  0  0  0  0  0  0  0  0  0  0  0
   -4.7430    8.9200   -3.6980 O   0  0  0  0  0  0  0  0  0  0  0  0
   -5.8490    8.1420   -4.1630 C   0  0  0  0  0  0  0  0  0  0  0  0
    0.1340   10.5440   -5.1780 C   0  0  0  0  0  0  0  0  0  0  0  0
  1  2  2  0
  1  6  1  0
  2  3  1  0
  2  9  1  0
  3  4  2  0
  3  7  1  0
  4  5  1  0
  5  6  2  0
  7  8  2  0
  8  9  1  0
  8 10  1  0
 10 11  1  0
 10 18  1  1
 11 12  1  0
 12 13  2  0
 12 17  1  0
 13 14  1  0
 14 15  2  0
 15 16  1  0
 16 17  2  0
 16 19  1  0
 17 25  1  0
 19 20  1  0
 20 21  1  0
 21 22  1  0
 22 23  1  0
 23 24  1  0
M  CHG  1  10   1
M  END
>  <_TriposChargeType>  (49) 
GAsT_HUCK

>  <PDB_ID>  (49) 
3pgl

$$$$
3pgl_ligand
     RDKit          3D

 25 27  0  0  0  0  0  0  0  0999 V2000
    3.4510   11.3720   -3.1790 C   0  0  0  0  0  0  0  0  0  0  0  0
    3.1650   11.7250   -4.4860 C   0  0  0  0  0  0  0  0  0  0  0  0
    3.8770   12.8740   -5.1010 C   0  0  0  0  0  0  0  0  0  0  0  0
    4.8200   13.5610   -4.3510 C   0  0  0  0  0  0  0  0  0  0  0  0
    5.0840   13.1730   -3.0410 C   0  0  0  0  0  0  0  0  0  0  0  0
    4.4040   12.1030   -2.4750 C   0  0  0  0  0  0  0  0  0  0  0  0
    3.4150   13.0050   -6.3620 N   0  0  0  0  0  0  0  0  0  0  0  0
    2.5100   12.0090   -6.4990 C   0  0  0  0  0  0  0  0  0  0  0  0
    2.3160   11.2310   -5.4170 N   0  0  0  0  0  0  0  0  0  0  0  0
    1.6520   11.8460   -7.9610 S   0  0  0  0  0  3  0  0  0  0  0  0
    0.7200   10.4400   -8.3270 C   0  0  0  0  0  0  0  0  0  0  0  0
    0.5200    9.2660   -7.3910 C   0  0  0  0  0  0  0  0  0  0  0  0
    0.5800    8.0950   -8.0410 N   0  0  0  0  0  0  0  0  0  0  0  0
    0.4320    6.9230   -7.4130 C   0  0  0  0  0  0  0  0  0  0  0  0
    0.1710    6.8500   -6.0490 C   0  0  0  0  0  0  0  0  0  0  0  0
    0.0730    8.0370   -5.3300 C   0  0  0  0  0  0  0  0  0  0  0  0
    0.2430    9.2710   -5.9990 C   0  0  0  0  0  0  0  0  0  0  0  0
    0.6010   12.9330   -7.9940 O   0  0  0  0  0  0  0  0  0  0  0  0
   -0.1850    7.9650   -3.9690 O   0  0  0  0  0  0  0  0  0  0  0  0
   -1.4220    7.4430   -3.4690 C   0  0  0  0  0  0  0  0  0  0  0  0
   -2.4260    8.5890   -3.4360 C   0  0  0  0  0  0  0  0  0  0  0  0
   -3.7950    8.1420   -2.9570 C   0  0  0  0  0  0  0  0  0  0  0  0
   -4.7430    8.9200   -3.6980 O   0  0  0  0  0  0  0  0  0  0  0  0
   -5.8490    8.1420   -4.1630 C   0  0  0  0  0  0  0  0  0  0  0  0
    0.1340   10.5440   -5.1780 C   0  0  0  0  0  0  0  0  0  0  0  0
  1  2  2  0
  1  6  1  0
  2  3  1  0
  2  9  1  0
  3  4  2  0
  3  7  1  0
  4  5  1  0
  5  6  2  0
  7  8  2  0
  8  9  1  0
  8 10  1  0
 10 11  1  0
 10 18  1  1
 11 12  1  0
 12 13  2  0
 12 17  1  0
 13 14  1  0
 14 15  2  0
 15 16  1  0
 16 17  2  0
 16 19  1  0
 17 25  1  0
 19 20  1  0
 20 21  1  0
 21 22  1  0
 22 23  1  0
 23 24  1  0
M  CHG  1  10   1
M  END
>  <_TriposChargeType>  (50) 
GAsT_HUCK

>  <PDB_ID>  (50) 
3pgl

$$$$
3pgl_ligand
     RDKit          3D

 25 27  0  0  0  0  0  0  0  0999 V2000
    3.4510   11.3720   -3.1790 C   0  0  0  0  0  0  0  0  0  0  0  0
    3.1650   11.7250   -4.4860 C   0  0  0  0  0  0  0  0  0  0  0  0
    3.8770   12.8740   -5.1010 C   0  0  0  0  0  0  0  0  0  0  0  0
    4.8200   13.5610   -4.3510 C   0  0  0  0  0  0  0  0  0  0  0  0
    5.0840   13.1730   -3.0410 C   0  0  0  0  0  0  0  0  0  0  0  0
    4.4040   12.1030   -2.4750 C   0  0  0  0  0  0  0  0  0  0  0  0
    3.4150   13.0050   -6.3620 N   0  0  0  0  0  0  0  0  0  0  0  0
    2.5100   12.0090   -6.4990 C   0  0  0  0  0  0  0  0  0  0  0  0
    2.3160   11.2310   -5.4170 N   0  0  0  0  0  0  0  0  0  0  0  0
    1.6520   11.8460   -7.9610 S   0  0  0  0  0  3  0  0  0  0  0  0
    0.7200   10.4400   -8.3270 C   0  0  0  0  0  0  0  0  0  0  0  0
    0.5200    9.2660   -7.3910 C   0  0  0  0  0  0  0  0  0  0  0  0
    0.5800    8.0950   -8.0410 N   0  0  0  0  0  0  0  0  0  0  0  0
    0.4320    6.9230   -7.4130 C   0  0  0  0  0  0  0  0  0  0  0  0
    0.1710    6.8500   -6.0490 C   0  0  0  0  0  0  0  0  0  0  0  0
    0.0730    8.0370   -5.3300 C   0  0  0  0  0  0  0  0  0  0  0  0
    0.2430    9.2710   -5.9990 C   0  0  0  0  0  0  0  0  0  0  0  0
    0.6010   12.9330   -7.9940 O   0  0  0  0  0  0  0  0  0  0  0  0
   -0.1850    7.9650   -3.9690 O   0  0  0  0  0  0  0  0  0  0  0  0
   -1.4220    7.4430   -3.4690 C   0  0  0  0  0  0  0  0  0  0  0  0
   -2.4260    8.5890   -3.4360 C   0  0  0  0  0  0  0  0  0  0  0  0
   -3.7950    8.1420   -2.9570 C   0  0  0  0  0  0  0  0  0  0  0  0
   -4.7430    8.9200   -3.6980 O   0  0  0  0  0  0  0  0  0  0  0  0
   -5.8490    8.1420   -4.1630 C   0  0  0  0  0  0  0  0  0  0  0  0
    0.1340   10.5440   -5.1780 C   0  0  0  0  0  0  0  0  0  0  0  0
  1  2  2  0
  1  6  1  0
  2  3  1  0
  2  9  1  0
  3  4  2  0
  3  7  1  0
  4  5  1  0
  5  6  2  0
  7  8  2  0
  8  9  1  0
  8 10  1  0
 10 11  1  0
 10 18  1  1
 11 12  1  0
 12 13  2  0
 12 17  1  0
 13 14  1  0
 14 15  2  0
 15 16  1  0
 16 17  2  0
 16 19  1  0
 17 25  1  0
 19 20  1  0
 20 21  1  0
 21 22  1  0
 22 23  1  0
 23 24  1  0
M  CHG  1  10   1
M  END
>  <_TriposChargeType>  (51) 
GAsT_HUCK

>  <PDB_ID>  (51) 
3pgl

$$$$
3pgl_ligand
     RDKit          3D

 25 27  0  0  0  0  0  0  0  0999 V2000
    3.4510   11.3720   -3.1790 C   0  0  0  0  0  0  0  0  0  0  0  0
    3.1650   11.7250   -4.4860 C   0  0  0  0  0  0  0  0  0  0  0  0
    3.8770   12.8740   -5.1010 C   0  0  0  0  0  0  0  0  0  0  0  0
    4.8200   13.5610   -4.3510 C   0  0  0  0  0  0  0  0  0  0  0  0
    5.0840   13.1730   -3.0410 C   0  0  0  0  0  0  0  0  0  0  0  0
    4.4040   12.1030   -2.4750 C   0  0  0  0  0  0  0  0  0  0  0  0
    3.4150   13.0050   -6.3620 N   0  0  0  0  0  0  0  0  0  0  0  0
    2.5100   12.0090   -6.4990 C   0  0  0  0  0  0  0  0  0  0  0  0
    2.3160   11.2310   -5.4170 N   0  0  0  0  0  0  0  0  0  0  0  0
    1.6520   11.8460   -7.9610 S   0  0  0  0  0  3  0  0  0  0  0  0
    0.7200   10.4400   -8.3270 C   0  0  0  0  0  0  0  0  0  0  0  0
    0.5200    9.2660   -7.3910 C   0  0  0  0  0  0  0  0  0  0  0  0
    0.5800    8.0950   -8.0410 N   0  0  0  0  0  0  0  0  0  0  0  0
    0.4320    6.9230   -7.4130 C   0  0  0  0  0  0  0  0  0  0  0  0
    0.1710    6.8500   -6.0490 C   0  0  0  0  0  0  0  0  0  0  0  0
    0.0730    8.0370   -5.3300 C   0  0  0  0  0  0  0  0  0  0  0  0
    0.2430    9.2710   -5.9990 C   0  0  0  0  0  0  0  0  0  0  0  0
    0.6010   12.9330   -7.9940 O   0  0  0  0  0  0  0  0  0  0  0  0
   -0.1850    7.9650   -3.9690 O   0  0  0  0  0  0  0  0  0  0  0  0
   -1.4220    7.4430   -3.4690 C   0  0  0  0  0  0  0  0  0  0  0  0
   -2.4260    8.5890   -3.4360 C   0  0  0  0  0  0  0  0  0  0  0  0
   -3.7950    8.1420   -2.9570 C   0  0  0  0  0  0  0  0  0  0  0  0
   -4.7430    8.9200   -3.6980 O   0  0  0  0  0  0  0  0  0  0  0  0
   -5.8490    8.1420   -4.1630 C   0  0  0  0  0  0  0  0  0  0  0  0
    0.1340   10.5440   -5.1780 C   0  0  0  0  0  0  0  0  0  0  0  0
  1  2  2  0
  1  6  1  0
  2  3  1  0
  2  9  1  0
  3  4  2  0
  3  7  1  0
  4  5  1  0
  5  6  2  0
  7  8  2  0
  8  9  1  0
  8 10  1  0
 10 11  1  0
 10 18  1  1
 11 12  1  0
 12 13  2  0
 12 17  1  0
 13 14  1  0
 14 15  2  0
 15 16  1  0
 16 17  2  0
 16 19  1  0
 17 25  1  0
 19 20  1  0
 20 21  1  0
 21 22  1  0
 22 23  1  0
 23 24  1  0
M  CHG  1  10   1
M  END
>  <_TriposChargeType>  (52) 
GAsT_HUCK

>  <PDB_ID>  (52) 
3pgl

$$$$
3pgl_ligand
     RDKit          3D

 25 27  0  0  0  0  0  0  0  0999 V2000
    3.4510   11.3720   -3.1790 C   0  0  0  0  0  0  0  0  0  0  0  0
    3.1650   11.7250   -4.4860 C   0  0  0  0  0  0  0  0  0  0  0  0
    3.8770   12.8740   -5.1010 C   0  0  0  0  0  0  0  0  0  0  0  0
    4.8200   13.5610   -4.3510 C   0  0  0  0  0  0  0  0  0  0  0  0
    5.0840   13.1730   -3.0410 C   0  0  0  0  0  0  0  0  0  0  0  0
    4.4040   12.1030   -2.4750 C   0  0  0  0  0  0  0  0  0  0  0  0
    3.4150   13.0050   -6.3620 N   0  0  0  0  0  0  0  0  0  0  0  0
    2.5100   12.0090   -6.4990 C   0  0  0  0  0  0  0  0  0  0  0  0
    2.3160   11.2310   -5.4170 N   0  0  0  0  0  0  0  0  0  0  0  0
    1.6520   11.8460   -7.9610 S   0  0  0  0  0  3  0  0  0  0  0  0
    0.7200   10.4400   -8.3270 C   0  0  0  0  0  0  0  0  0  0  0  0
    0.5200    9.2660   -7.3910 C   0  0  0  0  0  0  0  0  0  0  0  0
    0.5800    8.0950   -8.0410 N   0  0  0  0  0  0  0  0  0  0  0  0
    0.4320    6.9230   -7.4130 C   0  0  0  0  0  0  0  0  0  0  0  0
    0.1710    6.8500   -6.0490 C   0  0  0  0  0  0  0  0  0  0  0  0
    0.0730    8.0370   -5.3300 C   0  0  0  0  0  0  0  0  0  0  0  0
    0.2430    9.2710   -5.9990 C   0  0  0  0  0  0  0  0  0  0  0  0
    0.6010   12.9330   -7.9940 O   0  0  0  0  0  0  0  0  0  0  0  0
   -0.1850    7.9650   -3.9690 O   0  0  0  0  0  0  0  0  0  0  0  0
   -1.4220    7.4430   -3.4690 C   0  0  0  0  0  0  0  0  0  0  0  0
   -2.4260    8.5890   -3.4360 C   0  0  0  0  0  0  0  0  0  0  0  0
   -3.7950    8.1420   -2.9570 C   0  0  0  0  0  0  0  0  0  0  0  0
   -4.7430    8.9200   -3.6980 O   0  0  0  0  0  0  0  0  0  0  0  0
   -5.8490    8.1420   -4.1630 C   0  0  0  0  0  0  0  0  0  0  0  0
    0.1340   10.5440   -5.1780 C   0  0  0  0  0  0  0  0  0  0  0  0
  1  2  2  0
  1  6  1  0
  2  3  1  0
  2  9  1  0
  3  4  2  0
  3  7  1  0
  4  5  1  0
  5  6  2  0
  7  8  2  0
  8  9  1  0
  8 10  1  0
 10 11  1  0
 10 18  1  1
 11 12  1  0
 12 13  2  0
 12 17  1  0
 13 14  1  0
 14 15  2  0
 15 16  1  0
 16 17  2  0
 16 19  1  0
 17 25  1  0
 19 20  1  0
 20 21  1  0
 21 22  1  0
 22 23  1  0
 23 24  1  0
M  CHG  1  10   1
M  END
>  <_TriposChargeType>  (53) 
GAsT_HUCK

>  <PDB_ID>  (53) 
3pgl

$$$$
3pgl_ligand
     RDKit          3D

 25 27  0  0  0  0  0  0  0  0999 V2000
    3.4510   11.3720   -3.1790 C   0  0  0  0  0  0  0  0  0  0  0  0
    3.1650   11.7250   -4.4860 C   0  0  0  0  0  0  0  0  0  0  0  0
    3.8770   12.8740   -5.1010 C   0  0  0  0  0  0  0  0  0  0  0  0
    4.8200   13.5610   -4.3510 C   0  0  0  0  0  0  0  0  0  0  0  0
    5.0840   13.1730   -3.0410 C   0  0  0  0  0  0  0  0  0  0  0  0
    4.4040   12.1030   -2.4750 C   0  0  0  0  0  0  0  0  0  0  0  0
    3.4150   13.0050   -6.3620 N   0  0  0  0  0  0  0  0  0  0  0  0
    2.5100   12.0090   -6.4990 C   0  0  0  0  0  0  0  0  0  0  0  0
    2.3160   11.2310   -5.4170 N   0  0  0  0  0  0  0  0  0  0  0  0
    1.6520   11.8460   -7.9610 S   0  0  0  0  0  3  0  0  0  0  0  0
    0.7200   10.4400   -8.3270 C   0  0  0  0  0  0  0  0  0  0  0  0
    0.5200    9.2660   -7.3910 C   0  0  0  0  0  0  0  0  0  0  0  0
    0.5800    8.0950   -8.0410 N   0  0  0  0  0  0  0  0  0  0  0  0
    0.4320    6.9230   -7.4130 C   0  0  0  0  0  0  0  0  0  0  0  0
    0.1710    6.8500   -6.0490 C   0  0  0  0  0  0  0  0  0  0  0  0
    0.0730    8.0370   -5.3300 C   0  0  0  0  0  0  0  0  0  0  0  0
    0.2430    9.2710   -5.9990 C   0  0  0  0  0  0  0  0  0  0  0  0
    0.6010   12.9330   -7.9940 O   0  0  0  0  0  0  0  0  0  0  0  0
   -0.1850    7.9650   -3.9690 O   0  0  0  0  0  0  0  0  0  0  0  0
   -1.4220    7.4430   -3.4690 C   0  0  0  0  0  0  0  0  0  0  0  0
   -2.4260    8.5890   -3.4360 C   0  0  0  0  0  0  0  0  0  0  0  0
   -3.7950    8.1420   -2.9570 C   0  0  0  0  0  0  0  0  0  0  0  0
   -4.7430    8.9200   -3.6980 O   0  0  0  0  0  0  0  0  0  0  0  0
   -5.8490    8.1420   -4.1630 C   0  0  0  0  0  0  0  0  0  0  0  0
    0.1340   10.5440   -5.1780 C   0  0  0  0  0  0  0  0  0  0  0  0
  1  2  2  0
  1  6  1  0
  2  3  1  0
  2  9  1  0
  3  4  2  0
  3  7  1  0
  4  5  1  0
  5  6  2  0
  7  8  2  0
  8  9  1  0
  8 10  1  0
 10 11  1  0
 10 18  1  1
 11 12  1  0
 12 13  2  0
 12 17  1  0
 13 14  1  0
 14 15  2  0
 15 16  1  0
 16 17  2  0
 16 19  1  0
 17 25  1  0
 19 20  1  0
 20 21  1  0
 21 22  1  0
 22 23  1  0
 23 24  1  0
M  CHG  1  10   1
M  END
>  <_TriposChargeType>  (54) 
GAsT_HUCK

>  <PDB_ID>  (54) 
3pgl

$$$$
3pgl_ligand
     RDKit          3D

 25 27  0  0  0  0  0  0  0  0999 V2000
    3.4510   11.3720   -3.1790 C   0  0  0  0  0  0  0  0  0  0  0  0
    3.1650   11.7250   -4.4860 C   0  0  0  0  0  0  0  0  0  0  0  0
    3.8770   12.8740   -5.1010 C   0  0  0  0  0  0  0  0  0  0  0  0
    4.8200   13.5610   -4.3510 C   0  0  0  0  0  0  0  0  0  0  0  0
    5.0840   13.1730   -3.0410 C   0  0  0  0  0  0  0  0  0  0  0  0
    4.4040   12.1030   -2.4750 C   0  0  0  0  0  0  0  0  0  0  0  0
    3.4150   13.0050   -6.3620 N   0  0  0  0  0  0  0  0  0  0  0  0
    2.5100   12.0090   -6.4990 C   0  0  0  0  0  0  0  0  0  0  0  0
    2.3160   11.2310   -5.4170 N   0  0  0  0  0  0  0  0  0  0  0  0
    1.6520   11.8460   -7.9610 S   0  0  0  0  0  3  0  0  0  0  0  0
    0.7200   10.4400   -8.3270 C   0  0  0  0  0  0  0  0  0  0  0  0
    0.5200    9.2660   -7.3910 C   0  0  0  0  0  0  0  0  0  0  0  0
    0.5800    8.0950   -8.0410 N   0  0  0  0  0  0  0  0  0  0  0  0
    0.4320    6.9230   -7.4130 C   0  0  0  0  0  0  0  0  0  0  0  0
    0.1710    6.8500   -6.0490 C   0  0  0  0  0  0  0  0  0  0  0  0
    0.0730    8.0370   -5.3300 C   0  0  0  0  0  0  0  0  0  0  0  0
    0.2430    9.2710   -5.9990 C   0  0  0  0  0  0  0  0  0  0  0  0
    0.6010   12.9330   -7.9940 O   0  0  0  0  0  0  0  0  0  0  0  0
   -0.1850    7.9650   -3.9690 O   0  0  0  0  0  0  0  0  0  0  0  0
   -1.4220    7.4430   -3.4690 C   0  0  0  0  0  0  0  0  0  0  0  0
   -2.4260    8.5890   -3.4360 C   0  0  0  0  0  0  0  0  0  0  0  0
   -3.7950    8.1420   -2.9570 C   0  0  0  0  0  0  0  0  0  0  0  0
   -4.7430    8.9200   -3.6980 O   0  0  0  0  0  0  0  0  0  0  0  0
   -5.8490    8.1420   -4.1630 C   0  0  0  0  0  0  0  0  0  0  0  0
    0.1340   10.5440   -5.1780 C   0  0  0  0  0  0  0  0  0  0  0  0
  1  2  2  0
  1  6  1  0
  2  3  1  0
  2  9  1  0
  3  4  2  0
  3  7  1  0
  4  5  1  0
  5  6  2  0
  7  8  2  0
  8  9  1  0
  8 10  1  0
 10 11  1  0
 10 18  1  1
 11 12  1  0
 12 13  2  0
 12 17  1  0
 13 14  1  0
 14 15  2  0
 15 16  1  0
 16 17  2  0
 16 19  1  0
 17 25  1  0
 19 20  1  0
 20 21  1  0
 21 22  1  0
 22 23  1  0
 23 24  1  0
M  CHG  1  10   1
M  END
>  <_TriposChargeType>  (55) 
GAsT_HUCK

>  <PDB_ID>  (55) 
3pgl

$$$$
3pgl_ligand
     RDKit          3D

 25 27  0  0  0  0  0  0  0  0999 V2000
    3.4510   11.3720   -3.1790 C   0  0  0  0  0  0  0  0  0  0  0  0
    3.1650   11.7250   -4.4860 C   0  0  0  0  0  0  0  0  0  0  0  0
    3.8770   12.8740   -5.1010 C   0  0  0  0  0  0  0  0  0  0  0  0
    4.8200   13.5610   -4.3510 C   0  0  0  0  0  0  0  0  0  0  0  0
    5.0840   13.1730   -3.0410 C   0  0  0  0  0  0  0  0  0  0  0  0
    4.4040   12.1030   -2.4750 C   0  0  0  0  0  0  0  0  0  0  0  0
    3.4150   13.0050   -6.3620 N   0  0  0  0  0  0  0  0  0  0  0  0
    2.5100   12.0090   -6.4990 C   0  0  0  0  0  0  0  0  0  0  0  0
    2.3160   11.2310   -5.4170 N   0  0  0  0  0  0  0  0  0  0  0  0
    1.6520   11.8460   -7.9610 S   0  0  0  0  0  3  0  0  0  0  0  0
    0.7200   10.4400   -8.3270 C   0  0  0  0  0  0  0  0  0  0  0  0
    0.5200    9.2660   -7.3910 C   0  0  0  0  0  0  0  0  0  0  0  0
    0.5800    8.0950   -8.0410 N   0  0  0  0  0  0  0  0  0  0  0  0
    0.4320    6.9230   -7.4130 C   0  0  0  0  0  0  0  0  0  0  0  0
    0.1710    6.8500   -6.0490 C   0  0  0  0  0  0  0  0  0  0  0  0
    0.0730    8.0370   -5.3300 C   0  0  0  0  0  0  0  0  0  0  0  0
    0.2430    9.2710   -5.9990 C   0  0  0  0  0  0  0  0  0  0  0  0
    0.6010   12.9330   -7.9940 O   0  0  0  0  0  0  0  0  0  0  0  0
   -0.1850    7.9650   -3.9690 O   0  0  0  0  0  0  0  0  0  0  0  0
   -1.4220    7.4430   -3.4690 C   0  0  0  0  0  0  0  0  0  0  0  0
   -2.4260    8.5890   -3.4360 C   0  0  0  0  0  0  0  0  0  0  0  0
   -3.7950    8.1420   -2.9570 C   0  0  0  0  0  0  0  0  0  0  0  0
   -4.7430    8.9200   -3.6980 O   0  0  0  0  0  0  0  0  0  0  0  0
   -5.8490    8.1420   -4.1630 C   0  0  0  0  0  0  0  0  0  0  0  0
    0.1340   10.5440   -5.1780 C   0  0  0  0  0  0  0  0  0  0  0  0
  1  2  2  0
  1  6  1  0
  2  3  1  0
  2  9  1  0
  3  4  2  0
  3  7  1  0
  4  5  1  0
  5  6  2  0
  7  8  2  0
  8  9  1  0
  8 10  1  0
 10 11  1  0
 10 18  1  1
 11 12  1  0
 12 13  2  0
 12 17  1  0
 13 14  1  0
 14 15  2  0
 15 16  1  0
 16 17  2  0
 16 19  1  0
 17 25  1  0
 19 20  1  0
 20 21  1  0
 21 22  1  0
 22 23  1  0
 23 24  1  0
M  CHG  1  10   1
M  END
>  <_TriposChargeType>  (56) 
GAsT_HUCK

>  <PDB_ID>  (56) 
3pgl

$$$$
3pgl_ligand
     RDKit          3D

 25 27  0  0  0  0  0  0  0  0999 V2000
    3.4510   11.3720   -3.1790 C   0  0  0  0  0  0  0  0  0  0  0  0
    3.1650   11.7250   -4.4860 C   0  0  0  0  0  0  0  0  0  0  0  0
    3.8770   12.8740   -5.1010 C   0  0  0  0  0  0  0  0  0  0  0  0
    4.8200   13.5610   -4.3510 C   0  0  0  0  0  0  0  0  0  0  0  0
    5.0840   13.1730   -3.0410 C   0  0  0  0  0  0  0  0  0  0  0  0
    4.4040   12.1030   -2.4750 C   0  0  0  0  0  0  0  0  0  0  0  0
    3.4150   13.0050   -6.3620 N   0  0  0  0  0  0  0  0  0  0  0  0
    2.5100   12.0090   -6.4990 C   0  0  0  0  0  0  0  0  0  0  0  0
    2.3160   11.2310   -5.4170 N   0  0  0  0  0  0  0  0  0  0  0  0
    1.6520   11.8460   -7.9610 S   0  0  0  0  0  3  0  0  0  0  0  0
    0.7200   10.4400   -8.3270 C   0  0  0  0  0  0  0  0  0  0  0  0
    0.5200    9.2660   -7.3910 C   0  0  0  0  0  0  0  0  0  0  0  0
    0.5800    8.0950   -8.0410 N   0  0  0  0  0  0  0  0  0  0  0  0
    0.4320    6.9230   -7.4130 C   0  0  0  0  0  0  0  0  0  0  0  0
    0.1710    6.8500   -6.0490 C   0  0  0  0  0  0  0  0  0  0  0  0
    0.0730    8.0370   -5.3300 C   0  0  0  0  0  0  0  0  0  0  0  0
    0.2430    9.2710   -5.9990 C   0  0  0  0  0  0  0  0  0  0  0  0
    0.6010   12.9330   -7.9940 O   0  0  0  0  0  0  0  0  0  0  0  0
   -0.1850    7.9650   -3.9690 O   0  0  0  0  0  0  0  0  0  0  0  0
   -1.4220    7.4430   -3.4690 C   0  0  0  0  0  0  0  0  0  0  0  0
   -2.4260    8.5890   -3.4360 C   0  0  0  0  0  0  0  0  0  0  0  0
   -3.7950    8.1420   -2.9570 C   0  0  0  0  0  0  0  0  0  0  0  0
   -4.7430    8.9200   -3.6980 O   0  0  0  0  0  0  0  0  0  0  0  0
   -5.8490    8.1420   -4.1630 C   0  0  0  0  0  0  0  0  0  0  0  0
    0.1340   10.5440   -5.1780 C   0  0  0  0  0  0  0  0  0  0  0  0
  1  2  2  0
  1  6  1  0
  2  3  1  0
  2  9  1  0
  3  4  2  0
  3  7  1  0
  4  5  1  0
  5  6  2  0
  7  8  2  0
  8  9  1  0
  8 10  1  0
 10 11  1  0
 10 18  1  1
 11 12  1  0
 12 13  2  0
 12 17  1  0
 13 14  1  0
 14 15  2  0
 15 16  1  0
 16 17  2  0
 16 19  1  0
 17 25  1  0
 19 20  1  0
 20 21  1  0
 21 22  1  0
 22 23  1  0
 23 24  1  0
M  CHG  1  10   1
M  END
>  <_TriposChargeType>  (57) 
GAsT_HUCK

>  <PDB_ID>  (57) 
3pgl

$$$$
3pgl_ligand
     RDKit          3D

 25 27  0  0  0  0  0  0  0  0999 V2000
    3.4510   11.3720   -3.1790 C   0  0  0  0  0  0  0  0  0  0  0  0
    3.1650   11.7250   -4.4860 C   0  0  0  0  0  0  0  0  0  0  0  0
    3.8770   12.8740   -5.1010 C   0  0  0  0  0  0  0  0  0  0  0  0
    4.8200   13.5610   -4.3510 C   0  0  0  0  0  0  0  0  0  0  0  0
    5.0840   13.1730   -3.0410 C   0  0  0  0  0  0  0  0  0  0  0  0
    4.4040   12.1030   -2.4750 C   0  0  0  0  0  0  0  0  0  0  0  0
    3.4150   13.0050   -6.3620 N   0  0  0  0  0  0  0  0  0  0  0  0
    2.5100   12.0090   -6.4990 C   0  0  0  0  0  0  0  0  0  0  0  0
    2.3160   11.2310   -5.4170 N   0  0  0  0  0  0  0  0  0  0  0  0
    1.6520   11.8460   -7.9610 S   0  0  0  0  0  3  0  0  0  0  0  0
    0.7200   10.4400   -8.3270 C   0  0  0  0  0  0  0  0  0  0  0  0
    0.5200    9.2660   -7.3910 C   0  0  0  0  0  0  0  0  0  0  0  0
    0.5800    8.0950   -8.0410 N   0  0  0  0  0  0  0  0  0  0  0  0
    0.4320    6.9230   -7.4130 C   0  0  0  0  0  0  0  0  0  0  0  0
    0.1710    6.8500   -6.0490 C   0  0  0  0  0  0  0  0  0  0  0  0
    0.0730    8.0370   -5.3300 C   0  0  0  0  0  0  0  0  0  0  0  0
    0.2430    9.2710   -5.9990 C   0  0  0  0  0  0  0  0  0  0  0  0
    0.6010   12.9330   -7.9940 O   0  0  0  0  0  0  0  0  0  0  0  0
   -0.1850    7.9650   -3.9690 O   0  0  0  0  0  0  0  0  0  0  0  0
   -1.4220    7.4430   -3.4690 C   0  0  0  0  0  0  0  0  0  0  0  0
   -2.4260    8.5890   -3.4360 C   0  0  0  0  0  0  0  0  0  0  0  0
   -3.7950    8.1420   -2.9570 C   0  0  0  0  0  0  0  0  0  0  0  0
   -4.7430    8.9200   -3.6980 O   0  0  0  0  0  0  0  0  0  0  0  0
   -5.8490    8.1420   -4.1630 C   0  0  0  0  0  0  0  0  0  0  0  0
    0.1340   10.5440   -5.1780 C   0  0  0  0  0  0  0  0  0  0  0  0
  1  2  2  0
  1  6  1  0
  2  3  1  0
  2  9  1  0
  3  4  2  0
  3  7  1  0
  4  5  1  0
  5  6  2  0
  7  8  2  0
  8  9  1  0
  8 10  1  0
 10 11  1  0
 10 18  1  1
 11 12  1  0
 12 13  2  0
 12 17  1  0
 13 14  1  0
 14 15  2  0
 15 16  1  0
 16 17  2  0
 16 19  1  0
 17 25  1  0
 19 20  1  0
 20 21  1  0
 21 22  1  0
 22 23  1  0
 23 24  1  0
M  CHG  1  10   1
M  END
>  <_TriposChargeType>  (58) 
GAsT_HUCK

>  <PDB_ID>  (58) 
3pgl

$$$$
3pgl_ligand
     RDKit          3D

 25 27  0  0  0  0  0  0  0  0999 V2000
    3.4510   11.3720   -3.1790 C   0  0  0  0  0  0  0  0  0  0  0  0
    3.1650   11.7250   -4.4860 C   0  0  0  0  0  0  0  0  0  0  0  0
    3.8770   12.8740   -5.1010 C   0  0  0  0  0  0  0  0  0  0  0  0
    4.8200   13.5610   -4.3510 C   0  0  0  0  0  0  0  0  0  0  0  0
    5.0840   13.1730   -3.0410 C   0  0  0  0  0  0  0  0  0  0  0  0
    4.4040   12.1030   -2.4750 C   0  0  0  0  0  0  0  0  0  0  0  0
    3.4150   13.0050   -6.3620 N   0  0  0  0  0  0  0  0  0  0  0  0
    2.5100   12.0090   -6.4990 C   0  0  0  0  0  0  0  0  0  0  0  0
    2.3160   11.2310   -5.4170 N   0  0  0  0  0  0  0  0  0  0  0  0
    1.6520   11.8460   -7.9610 S   0  0  0  0  0  3  0  0  0  0  0  0
    0.7200   10.4400   -8.3270 C   0  0  0  0  0  0  0  0  0  0  0  0
    0.5200    9.2660   -7.3910 C   0  0  0  0  0  0  0  0  0  0  0  0
    0.5800    8.0950   -8.0410 N   0  0  0  0  0  0  0  0  0  0  0  0
    0.4320    6.9230   -7.4130 C   0  0  0  0  0  0  0  0  0  0  0  0
    0.1710    6.8500   -6.0490 C   0  0  0  0  0  0  0  0  0  0  0  0
    0.0730    8.0370   -5.3300 C   0  0  0  0  0  0  0  0  0  0  0  0
    0.2430    9.2710   -5.9990 C   0  0  0  0  0  0  0  0  0  0  0  0
    0.6010   12.9330   -7.9940 O   0  0  0  0  0  0  0  0  0  0  0  0
   -0.1850    7.9650   -3.9690 O   0  0  0  0  0  0  0  0  0  0  0  0
   -1.4220    7.4430   -3.4690 C   0  0  0  0  0  0  0  0  0  0  0  0
   -2.4260    8.5890   -3.4360 C   0  0  0  0  0  0  0  0  0  0  0  0
   -3.7950    8.1420   -2.9570 C   0  0  0  0  0  0  0  0  0  0  0  0
   -4.7430    8.9200   -3.6980 O   0  0  0  0  0  0  0  0  0  0  0  0
   -5.8490    8.1420   -4.1630 C   0  0  0  0  0  0  0  0  0  0  0  0
    0.1340   10.5440   -5.1780 C   0  0  0  0  0  0  0  0  0  0  0  0
  1  2  2  0
  1  6  1  0
  2  3  1  0
  2  9  1  0
  3  4  2  0
  3  7  1  0
  4  5  1  0
  5  6  2  0
  7  8  2  0
  8  9  1  0
  8 10  1  0
 10 11  1  0
 10 18  1  1
 11 12  1  0
 12 13  2  0
 12 17  1  0
 13 14  1  0
 14 15  2  0
 15 16  1  0
 16 17  2  0
 16 19  1  0
 17 25  1  0
 19 20  1  0
 20 21  1  0
 21 22  1  0
 22 23  1  0
 23 24  1  0
M  CHG  1  10   1
M  END
>  <_TriposChargeType>  (59) 
GAsT_HUCK

>  <PDB_ID>  (59) 
3pgl

$$$$
3pgl_ligand
     RDKit          3D

 25 27  0  0  0  0  0  0  0  0999 V2000
    3.4510   11.3720   -3.1790 C   0  0  0  0  0  0  0  0  0  0  0  0
    3.1650   11.7250   -4.4860 C   0  0  0  0  0  0  0  0  0  0  0  0
    3.8770   12.8740   -5.1010 C   0  0  0  0  0  0  0  0  0  0  0  0
    4.8200   13.5610   -4.3510 C   0  0  0  0  0  0  0  0  0  0  0  0
    5.0840   13.1730   -3.0410 C   0  0  0  0  0  0  0  0  0  0  0  0
    4.4040   12.1030   -2.4750 C   0  0  0  0  0  0  0  0  0  0  0  0
    3.4150   13.0050   -6.3620 N   0  0  0  0  0  0  0  0  0  0  0  0
    2.5100   12.0090   -6.4990 C   0  0  0  0  0  0  0  0  0  0  0  0
    2.3160   11.2310   -5.4170 N   0  0  0  0  0  0  0  0  0  0  0  0
    1.6520   11.8460   -7.9610 S   0  0  0  0  0  3  0  0  0  0  0  0
    0.7200   10.4400   -8.3270 C   0  0  0  0  0  0  0  0  0  0  0  0
    0.5200    9.2660   -7.3910 C   0  0  0  0  0  0  0  0  0  0  0  0
    0.5800    8.0950   -8.0410 N   0  0  0  0  0  0  0  0  0  0  0  0
    0.4320    6.9230   -7.4130 C   0  0  0  0  0  0  0  0  0  0  0  0
    0.1710    6.8500   -6.0490 C   0  0  0  0  0  0  0  0  0  0  0  0
    0.0730    8.0370   -5.3300 C   0  0  0  0  0  0  0  0  0  0  0  0
    0.2430    9.2710   -5.9990 C   0  0  0  0  0  0  0  0  0  0  0  0
    0.6010   12.9330   -7.9940 O   0  0  0  0  0  0  0  0  0  0  0  0
   -0.1850    7.9650   -3.9690 O   0  0  0  0  0  0  0  0  0  0  0  0
   -1.4220    7.4430   -3.4690 C   0  0  0  0  0  0  0  0  0  0  0  0
   -2.4260    8.5890   -3.4360 C   0  0  0  0  0  0  0  0  0  0  0  0
   -3.7950    8.1420   -2.9570 C   0  0  0  0  0  0  0  0  0  0  0  0
   -4.7430    8.9200   -3.6980 O   0  0  0  0  0  0  0  0  0  0  0  0
   -5.8490    8.1420   -4.1630 C   0  0  0  0  0  0  0  0  0  0  0  0
    0.1340   10.5440   -5.1780 C   0  0  0  0  0  0  0  0  0  0  0  0
  1  2  2  0
  1  6  1  0
  2  3  1  0
  2  9  1  0
  3  4  2  0
  3  7  1  0
  4  5  1  0
  5  6  2  0
  7  8  2  0
  8  9  1  0
  8 10  1  0
 10 11  1  0
 10 18  1  1
 11 12  1  0
 12 13  2  0
 12 17  1  0
 13 14  1  0
 14 15  2  0
 15 16  1  0
 16 17  2  0
 16 19  1  0
 17 25  1  0
 19 20  1  0
 20 21  1  0
 21 22  1  0
 22 23  1  0
 23 24  1  0
M  CHG  1  10   1
M  END
>  <_TriposChargeType>  (60) 
GAsT_HUCK

>  <PDB_ID>  (60) 
3pgl

$$$$
3pgl_ligand
     RDKit          3D

 25 27  0  0  0  0  0  0  0  0999 V2000
    3.4510   11.3720   -3.1790 C   0  0  0  0  0  0  0  0  0  0  0  0
    3.1650   11.7250   -4.4860 C   0  0  0  0  0  0  0  0  0  0  0  0
    3.8770   12.8740   -5.1010 C   0  0  0  0  0  0  0  0  0  0  0  0
    4.8200   13.5610   -4.3510 C   0  0  0  0  0  0  0  0  0  0  0  0
    5.0840   13.1730   -3.0410 C   0  0  0  0  0  0  0  0  0  0  0  0
    4.4040   12.1030   -2.4750 C   0  0  0  0  0  0  0  0  0  0  0  0
    3.4150   13.0050   -6.3620 N   0  0  0  0  0  0  0  0  0  0  0  0
    2.5100   12.0090   -6.4990 C   0  0  0  0  0  0  0  0  0  0  0  0
    2.3160   11.2310   -5.4170 N   0  0  0  0  0  0  0  0  0  0  0  0
    1.6520   11.8460   -7.9610 S   0  0  0  0  0  3  0  0  0  0  0  0
    0.7200   10.4400   -8.3270 C   0  0  0  0  0  0  0  0  0  0  0  0
    0.5200    9.2660   -7.3910 C   0  0  0  0  0  0  0  0  0  0  0  0
    0.5800    8.0950   -8.0410 N   0  0  0  0  0  0  0  0  0  0  0  0
    0.4320    6.9230   -7.4130 C   0  0  0  0  0  0  0  0  0  0  0  0
    0.1710    6.8500   -6.0490 C   0  0  0  0  0  0  0  0  0  0  0  0
    0.0730    8.0370   -5.3300 C   0  0  0  0  0  0  0  0  0  0  0  0
    0.2430    9.2710   -5.9990 C   0  0  0  0  0  0  0  0  0  0  0  0
    0.6010   12.9330   -7.9940 O   0  0  0  0  0  0  0  0  0  0  0  0
   -0.1850    7.9650   -3.9690 O   0  0  0  0  0  0  0  0  0  0  0  0
   -1.4220    7.4430   -3.4690 C   0  0  0  0  0  0  0  0  0  0  0  0
   -2.4260    8.5890   -3.4360 C   0  0  0  0  0  0  0  0  0  0  0  0
   -3.7950    8.1420   -2.9570 C   0  0  0  0  0  0  0  0  0  0  0  0
   -4.7430    8.9200   -3.6980 O   0  0  0  0  0  0  0  0  0  0  0  0
   -5.8490    8.1420   -4.1630 C   0  0  0  0  0  0  0  0  0  0  0  0
    0.1340   10.5440   -5.1780 C   0  0  0  0  0  0  0  0  0  0  0  0
  1  2  2  0
  1  6  1  0
  2  3  1  0
  2  9  1  0
  3  4  2  0
  3  7  1  0
  4  5  1  0
  5  6  2  0
  7  8  2  0
  8  9  1  0
  8 10  1  0
 10 11  1  0
 10 18  1  1
 11 12  1  0
 12 13  2  0
 12 17  1  0
 13 14  1  0
 14 15  2  0
 15 16  1  0
 16 17  2  0
 16 19  1  0
 17 25  1  0
 19 20  1  0
 20 21  1  0
 21 22  1  0
 22 23  1  0
 23 24  1  0
M  CHG  1  10   1
M  END
>  <_TriposChargeType>  (61) 
GAsT_HUCK

>  <PDB_ID>  (61) 
3pgl

$$$$
3pgl_ligand
     RDKit          3D

 25 27  0  0  0  0  0  0  0  0999 V2000
    3.4510   11.3720   -3.1790 C   0  0  0  0  0  0  0  0  0  0  0  0
    3.1650   11.7250   -4.4860 C   0  0  0  0  0  0  0  0  0  0  0  0
    3.8770   12.8740   -5.1010 C   0  0  0  0  0  0  0  0  0  0  0  0
    4.8200   13.5610   -4.3510 C   0  0  0  0  0  0  0  0  0  0  0  0
    5.0840   13.1730   -3.0410 C   0  0  0  0  0  0  0  0  0  0  0  0
    4.4040   12.1030   -2.4750 C   0  0  0  0  0  0  0  0  0  0  0  0
    3.4150   13.0050   -6.3620 N   0  0  0  0  0  0  0  0  0  0  0  0
    2.5100   12.0090   -6.4990 C   0  0  0  0  0  0  0  0  0  0  0  0
    2.3160   11.2310   -5.4170 N   0  0  0  0  0  0  0  0  0  0  0  0
    1.6520   11.8460   -7.9610 S   0  0  0  0  0  3  0  0  0  0  0  0
    0.7200   10.4400   -8.3270 C   0  0  0  0  0  0  0  0  0  0  0  0
    0.5200    9.2660   -7.3910 C   0  0  0  0  0  0  0  0  0  0  0  0
    0.5800    8.0950   -8.0410 N   0  0  0  0  0  0  0  0  0  0  0  0
    0.4320    6.9230   -7.4130 C   0  0  0  0  0  0  0  0  0  0  0  0
    0.1710    6.8500   -6.0490 C   0  0  0  0  0  0  0  0  0  0  0  0
    0.0730    8.0370   -5.3300 C   0  0  0  0  0  0  0  0  0  0  0  0
    0.2430    9.2710   -5.9990 C   0  0  0  0  0  0  0  0  0  0  0  0
    0.6010   12.9330   -7.9940 O   0  0  0  0  0  0  0  0  0  0  0  0
   -0.1850    7.9650   -3.9690 O   0  0  0  0  0  0  0  0  0  0  0  0
   -1.4220    7.4430   -3.4690 C   0  0  0  0  0  0  0  0  0  0  0  0
   -2.4260    8.5890   -3.4360 C   0  0  0  0  0  0  0  0  0  0  0  0
   -3.7950    8.1420   -2.9570 C   0  0  0  0  0  0  0  0  0  0  0  0
   -4.7430    8.9200   -3.6980 O   0  0  0  0  0  0  0  0  0  0  0  0
   -5.8490    8.1420   -4.1630 C   0  0  0  0  0  0  0  0  0  0  0  0
    0.1340   10.5440   -5.1780 C   0  0  0  0  0  0  0  0  0  0  0  0
  1  2  2  0
  1  6  1  0
  2  3  1  0
  2  9  1  0
  3  4  2  0
  3  7  1  0
  4  5  1  0
  5  6  2  0
  7  8  2  0
  8  9  1  0
  8 10  1  0
 10 11  1  0
 10 18  1  1
 11 12  1  0
 12 13  2  0
 12 17  1  0
 13 14  1  0
 14 15  2  0
 15 16  1  0
 16 17  2  0
 16 19  1  0
 17 25  1  0
 19 20  1  0
 20 21  1  0
 21 22  1  0
 22 23  1  0
 23 24  1  0
M  CHG  1  10   1
M  END
>  <_TriposChargeType>  (62) 
GAsT_HUCK

>  <PDB_ID>  (62) 
3pgl

$$$$
3pgl_ligand
     RDKit          3D

 25 27  0  0  0  0  0  0  0  0999 V2000
    3.4510   11.3720   -3.1790 C   0  0  0  0  0  0  0  0  0  0  0  0
    3.1650   11.7250   -4.4860 C   0  0  0  0  0  0  0  0  0  0  0  0
    3.8770   12.8740   -5.1010 C   0  0  0  0  0  0  0  0  0  0  0  0
    4.8200   13.5610   -4.3510 C   0  0  0  0  0  0  0  0  0  0  0  0
    5.0840   13.1730   -3.0410 C   0  0  0  0  0  0  0  0  0  0  0  0
    4.4040   12.1030   -2.4750 C   0  0  0  0  0  0  0  0  0  0  0  0
    3.4150   13.0050   -6.3620 N   0  0  0  0  0  0  0  0  0  0  0  0
    2.5100   12.0090   -6.4990 C   0  0  0  0  0  0  0  0  0  0  0  0
    2.3160   11.2310   -5.4170 N   0  0  0  0  0  0  0  0  0  0  0  0
    1.6520   11.8460   -7.9610 S   0  0  0  0  0  3  0  0  0  0  0  0
    0.7200   10.4400   -8.3270 C   0  0  0  0  0  0  0  0  0  0  0  0
    0.5200    9.2660   -7.3910 C   0  0  0  0  0  0  0  0  0  0  0  0
    0.5800    8.0950   -8.0410 N   0  0  0  0  0  0  0  0  0  0  0  0
    0.4320    6.9230   -7.4130 C   0  0  0  0  0  0  0  0  0  0  0  0
    0.1710    6.8500   -6.0490 C   0  0  0  0  0  0  0  0  0  0  0  0
    0.0730    8.0370   -5.3300 C   0  0  0  0  0  0  0  0  0  0  0  0
    0.2430    9.2710   -5.9990 C   0  0  0  0  0  0  0  0  0  0  0  0
    0.6010   12.9330   -7.9940 O   0  0  0  0  0  0  0  0  0  0  0  0
   -0.1850    7.9650   -3.9690 O   0  0  0  0  0  0  0  0  0  0  0  0
   -1.4220    7.4430   -3.4690 C   0  0  0  0  0  0  0  0  0  0  0  0
   -2.4260    8.5890   -3.4360 C   0  0  0  0  0  0  0  0  0  0  0  0
   -3.7950    8.1420   -2.9570 C   0  0  0  0  0  0  0  0  0  0  0  0
   -4.7430    8.9200   -3.6980 O   0  0  0  0  0  0  0  0  0  0  0  0
   -5.8490    8.1420   -4.1630 C   0  0  0  0  0  0  0  0  0  0  0  0
    0.1340   10.5440   -5.1780 C   0  0  0  0  0  0  0  0  0  0  0  0
  1  2  2  0
  1  6  1  0
  2  3  1  0
  2  9  1  0
  3  4  2  0
  3  7  1  0
  4  5  1  0
  5  6  2  0
  7  8  2  0
  8  9  1  0
  8 10  1  0
 10 11  1  0
 10 18  1  1
 11 12  1  0
 12 13  2  0
 12 17  1  0
 13 14  1  0
 14 15  2  0
 15 16  1  0
 16 17  2  0
 16 19  1  0
 17 25  1  0
 19 20  1  0
 20 21  1  0
 21 22  1  0
 22 23  1  0
 23 24  1  0
M  CHG  1  10   1
M  END
>  <_TriposChargeType>  (63) 
GAsT_HUCK

>  <PDB_ID>  (63) 
3pgl

$$$$
3pgl_ligand
     RDKit          3D

 25 27  0  0  0  0  0  0  0  0999 V2000
    3.4510   11.3720   -3.1790 C   0  0  0  0  0  0  0  0  0  0  0  0
    3.1650   11.7250   -4.4860 C   0  0  0  0  0  0  0  0  0  0  0  0
    3.8770   12.8740   -5.1010 C   0  0  0  0  0  0  0  0  0  0  0  0
    4.8200   13.5610   -4.3510 C   0  0  0  0  0  0  0  0  0  0  0  0
    5.0840   13.1730   -3.0410 C   0  0  0  0  0  0  0  0  0  0  0  0
    4.4040   12.1030   -2.4750 C   0  0  0  0  0  0  0  0  0  0  0  0
    3.4150   13.0050   -6.3620 N   0  0  0  0  0  0  0  0  0  0  0  0
    2.5100   12.0090   -6.4990 C   0  0  0  0  0  0  0  0  0  0  0  0
    2.3160   11.2310   -5.4170 N   0  0  0  0  0  0  0  0  0  0  0  0
    1.6520   11.8460   -7.9610 S   0  0  0  0  0  3  0  0  0  0  0  0
    0.7200   10.4400   -8.3270 C   0  0  0  0  0  0  0  0  0  0  0  0
    0.5200    9.2660   -7.3910 C   0  0  0  0  0  0  0  0  0  0  0  0
    0.5800    8.0950   -8.0410 N   0  0  0  0  0  0  0  0  0  0  0  0
    0.4320    6.9230   -7.4130 C   0  0  0  0  0  0  0  0  0  0  0  0
    0.1710    6.8500   -6.0490 C   0  0  0  0  0  0  0  0  0  0  0  0
    0.0730    8.0370   -5.3300 C   0  0  0  0  0  0  0  0  0  0  0  0
    0.2430    9.2710   -5.9990 C   0  0  0  0  0  0  0  0  0  0  0  0
    0.6010   12.9330   -7.9940 O   0  0  0  0  0  0  0  0  0  0  0  0
   -0.1850    7.9650   -3.9690 O   0  0  0  0  0  0  0  0  0  0  0  0
   -1.4220    7.4430   -3.4690 C   0  0  0  0  0  0  0  0  0  0  0  0
   -2.4260    8.5890   -3.4360 C   0  0  0  0  0  0  0  0  0  0  0  0
   -3.7950    8.1420   -2.9570 C   0  0  0  0  0  0  0  0  0  0  0  0
   -4.7430    8.9200   -3.6980 O   0  0  0  0  0  0  0  0  0  0  0  0
   -5.8490    8.1420   -4.1630 C   0  0  0  0  0  0  0  0  0  0  0  0
    0.1340   10.5440   -5.1780 C   0  0  0  0  0  0  0  0  0  0  0  0
  1  2  2  0
  1  6  1  0
  2  3  1  0
  2  9  1  0
  3  4  2  0
  3  7  1  0
  4  5  1  0
  5  6  2  0
  7  8  2  0
  8  9  1  0
  8 10  1  0
 10 11  1  0
 10 18  1  1
 11 12  1  0
 12 13  2  0
 12 17  1  0
 13 14  1  0
 14 15  2  0
 15 16  1  0
 16 17  2  0
 16 19  1  0
 17 25  1  0
 19 20  1  0
 20 21  1  0
 21 22  1  0
 22 23  1  0
 23 24  1  0
M  CHG  1  10   1
M  END
>  <_TriposChargeType>  (64) 
GAsT_HUCK

>  <PDB_ID>  (64) 
3pgl

$$$$
