
     RDKit          3D

251245  0  0  0  0  0  0  0  0999 V2000
    8.2390   15.7430  -10.2460 N   0  0  0  0  0  2  0  0  0  0  0  0
    8.4060   14.8450   -9.7480 H   0  0  0  0  0  0  0  0  0  0  0  0
    7.1270   16.5820   -9.8330 C   0  0  2  0  0  0  0  0  0  0  0  0
    6.5240   16.7530  -10.7240 H   0  0  0  0  0  0  0  0  0  0  0  0
    7.5010   17.9630   -9.3590 C   0  0  0  0  0  3  0  0  0  0  0  0
    8.3130   18.1090   -8.4540 O   0  0  0  0  0  0  0  0  0  0  0  0
    6.3630   15.8620   -8.7680 C   0  0  0  0  0  0  0  0  0  0  0  0
    7.0440   15.5910   -7.9610 H   0  0  0  0  0  0  0  0  0  0  0  0
    5.5850   16.5200   -8.3800 H   0  0  0  0  0  0  0  0  0  0  0  0
    5.7360   14.6350   -9.3040 C   0  0  0  0  0  0  0  0  0  0  0  0
    4.8520   14.7920  -10.1880 O   0  0  0  0  0  0  0  0  0  0  0  0
    6.1520   13.5130   -8.8840 O   0  0  0  0  0  0  0  0  0  0  0  0
    1.6580   16.8130  -11.9920 N   0  0  0  0  0  2  0  0  0  0  0  0
    2.3630   16.6600  -11.2430 H   0  0  0  0  0  0  0  0  0  0  0  0
    0.5750   15.8710  -12.1280 C   0  0  2  0  0  0  0  0  0  0  0  0
    0.1290   15.9910  -13.1150 H   0  0  0  0  0  0  0  0  0  0  0  0
   -0.5220   16.1130  -11.1130 C   0  0  0  0  0  0  0  0  0  0  0  0
   -0.2990   16.7340  -10.0760 O   0  0  0  0  0  0  0  0  0  0  0  0
    1.1300   14.4960  -11.9520 C   0  0  0  0  0  0  0  0  0  0  0  0
    0.3140   13.7740  -11.9180 H   0  0  0  0  0  0  0  0  0  0  0  0
    1.6970   14.4460  -11.0220 H   0  0  0  0  0  0  0  0  0  0  0  0
    1.9940   14.1960  -13.0610 O   0  0  0  0  0  0  0  0  0  0  0  0
    2.3660   13.2850  -12.9510 H   0  0  0  0  0  0  0  0  0  0  0  0
   -1.7070   15.5990  -11.3820 N   0  0  0  0  0  0  0  0  0  0  0  0
   -1.8300   15.0390  -12.2500 H   0  0  0  0  0  0  0  0  0  0  0  0
   -2.8500   15.7940  -10.4960 C   0  0  2  0  0  0  0  0  0  0  0  0
   -2.4940   15.6940   -9.4710 H   0  0  0  0  0  0  0  0  0  0  0  0
   -3.9360   14.7420  -10.7100 C   0  0  0  0  0  0  0  0  0  0  0  0
   -4.1170   14.2150  -11.8220 O   0  0  0  0  0  0  0  0  0  0  0  0
   -3.4310   17.1680  -10.7260 C   0  0  0  0  0  0  0  0  0  0  0  0
   -3.6970   17.2780  -11.7770 H   0  0  0  0  0  0  0  0  0  0  0  0
   -2.6920   17.9230  -10.4590 H   0  0  0  0  0  0  0  0  0  0  0  0
   -4.5930   17.3400   -9.9250 O   0  0  0  0  0  0  0  0  0  0  0  0
   -4.9690   18.2430  -10.0800 H   0  0  0  0  0  0  0  0  0  0  0  0
   -4.6520   14.4140   -9.6350 N   0  0  0  0  0  0  0  0  0  0  0  0
   -4.3590   14.7920   -8.7110 H   0  0  0  0  0  0  0  0  0  0  0  0
   -5.8320   13.5460   -9.6910 C   0  0  2  0  0  0  0  0  0  0  0  0
   -5.6450   12.7780  -10.4420 H   0  0  0  0  0  0  0  0  0  0  0  0
   -7.0770   14.3290  -10.1220 C   0  0  0  0  0  3  0  0  0  0  0  0
   -8.0250   13.7390  -10.5890 O   0  0  0  0  0  0  0  0  0  0  0  0
   -6.0610   12.8570   -8.3570 C   0  0  0  0  0  0  0  0  0  0  0  0
   -5.9730   13.6020   -7.5670 H   0  0  0  0  0  0  0  0  0  0  0  0
   -7.0700   12.4440   -8.3540 H   0  0  0  0  0  0  0  0  0  0  0  0
   -5.0730   11.7210   -8.0610 C   0  0  0  0  0  0  0  0  0  0  0  0
   -4.0720   11.8810   -7.1020 C   0  0  0  0  0  0  0  0  0  0  0  0
   -3.9860   12.8270   -6.5670 H   0  0  0  0  0  0  0  0  0  0  0  0
   -5.1740   10.4980   -8.7080 C   0  0  0  0  0  0  0  0  0  0  0  0
   -5.9560   10.3530   -9.4530 H   0  0  0  0  0  0  0  0  0  0  0  0
   -3.1820   10.8480   -6.8190 C   0  0  0  0  0  0  0  0  0  0  0  0
   -2.4060   10.9870   -6.0660 H   0  0  0  0  0  0  0  0  0  0  0  0
   -4.2920    9.4420   -8.4250 C   0  0  0  0  0  0  0  0  0  0  0  0
   -4.4060    8.4830   -8.9310 H   0  0  0  0  0  0  0  0  0  0  0  0
   -3.2860    9.6220   -7.5080 C   0  0  0  0  0  0  0  0  0  0  0  0
   -2.5720    8.8220   -7.3140 H   0  0  0  0  0  0  0  0  0  0  0  0
   -3.3140    5.0230  -13.0570 N   0  0  0  0  0  2  0  0  0  0  0  0
   -4.1400    5.6150  -12.8370 H   0  0  0  0  0  0  0  0  0  0  0  0
   -2.5170    4.4610  -11.9940 C   0  0  2  0  0  0  0  0  0  0  0  0
   -1.7250    3.8470  -12.4230 H   0  0  0  0  0  0  0  0  0  0  0  0
   -3.4380    3.6400  -11.1070 C   0  0  0  0  0  3  0  0  0  0  0  0
   -4.4710    4.1900  -10.6370 O   0  0  0  0  0  0  0  0  0  0  0  0
   -1.8540    5.5840  -11.1350 C   0  0  0  0  0  0  0  0  0  0  0  0
   -2.6490    6.2450  -10.7900 H   0  0  0  0  0  0  0  0  0  0  0  0
   -1.1450    4.9970   -9.9330 C   0  0  0  0  0  0  0  0  0  0  0  0
   -1.8650    4.4610   -9.3150 H   0  0  0  0  0  0  0  0  0  0  0  0
   -0.3700    4.3090  -10.2700 H   0  0  0  0  0  0  0  0  0  0  0  0
   -0.6920    5.8000   -9.3520 H   0  0  0  0  0  0  0  0  0  0  0  0
   -0.8790    6.3820  -11.9530 C   0  0  0  0  0  0  0  0  0  0  0  0
   -0.0980    5.7220  -12.3300 H   0  0  0  0  0  0  0  0  0  0  0  0
   -1.4020    6.8440  -12.7900 H   0  0  0  0  0  0  0  0  0  0  0  0
   -0.4320    7.1570  -11.3300 H   0  0  0  0  0  0  0  0  0  0  0  0
   -4.5210    2.0210   -7.7850 N   0  0  0  0  0  2  0  0  0  0  0  0
   -5.4600    2.1270   -8.2190 H   0  0  0  0  0  0  0  0  0  0  0  0
   -4.3760    2.2860   -6.3400 C   0  0  2  0  0  0  0  0  0  0  0  0
   -3.3700    1.9630   -6.0710 H   0  0  0  0  0  0  0  0  0  0  0  0
   -5.3740    1.4700   -5.5200 C   0  0  0  0  0  3  0  0  0  0  0  0
   -6.6090    1.7400   -5.5300 O   0  0  0  0  0  0  0  0  0  0  0  0
   -4.4620    3.8040   -5.9870 C   0  0  2  0  0  0  0  0  0  0  0  0
   -5.4400    4.1780   -6.2900 H   0  0  0  0  0  0  0  0  0  0  0  0
   -3.3750    4.5860   -6.7450 C   0  0  0  0  0  0  0  0  0  0  0  0
   -2.4260    4.4330   -6.2310 H   0  0  0  0  0  0  0  0  0  0  0  0
   -3.3090    4.1820   -7.7550 H   0  0  0  0  0  0  0  0  0  0  0  0
   -4.3050    4.0130   -4.4580 C   0  0  0  0  0  0  0  0  0  0  0  0
   -5.1000    3.4810   -3.9360 H   0  0  0  0  0  0  0  0  0  0  0  0
   -3.3370    3.6280   -4.1370 H   0  0  0  0  0  0  0  0  0  0  0  0
   -4.3670    5.0770   -4.2300 H   0  0  0  0  0  0  0  0  0  0  0  0
   -3.6210    6.0930   -6.8510 C   0  0  0  0  0  0  0  0  0  0  0  0
   -4.5590    6.2710   -7.3760 H   0  0  0  0  0  0  0  0  0  0  0  0
   -3.6760    6.5220   -5.8510 H   0  0  0  0  0  0  0  0  0  0  0  0
   -2.8020    6.5560   -7.4010 H   0  0  0  0  0  0  0  0  0  0  0  0
   -7.1030    4.9550  -11.2140 N   0  0  0  0  0  2  0  0  0  0  0  0
   -6.1220    4.6450  -11.0650 H   0  0  0  0  0  0  0  0  0  0  0  0
   -7.3690    6.3930  -11.2260 C   0  0  2  0  0  0  0  0  0  0  0  0
   -8.4260    6.5500  -11.4390 H   0  0  0  0  0  0  0  0  0  0  0  0
   -6.5510    7.1110  -12.3230 C   0  0  0  0  0  3  0  0  0  0  0  0
   -5.3670    6.8340  -12.4820 O   0  0  0  0  0  0  0  0  0  0  0  0
   -6.9990    6.9690   -9.8590 C   0  0  0  0  0  0  0  0  0  0  0  0
   -5.9460    6.7590   -9.6690 H   0  0  0  0  0  0  0  0  0  0  0  0
   -7.1550    8.0480   -9.8840 H   0  0  0  0  0  0  0  0  0  0  0  0
   -7.8100    6.3970   -8.7320 C   0  0  0  0  0  0  0  0  0  0  0  0
   -9.1120    6.7880   -8.4820 N   0  0  0  0  0  0  0  0  0  0  0  0
   -7.5200    5.4300   -7.8250 C   0  0  0  0  0  0  0  0  0  0  0  0
   -6.5730    4.9000   -7.7210 H   0  0  0  0  0  0  0  0  0  0  0  0
   -9.5840    6.0790   -7.4730 C   0  0  0  0  0  0  0  0  0  0  0  0
  -10.5840    6.1660   -7.0470 H   0  0  0  0  0  0  0  0  0  0  0  0
   -8.6430    5.2470   -7.0660 N   0  0  0  0  0  0  0  0  0  0  0  0
   -4.3430    9.9870  -13.8600 N   0  0  0  0  0  2  0  0  0  0  0  0
   -3.9430    9.2670  -14.4950 H   0  0  0  0  0  0  0  0  0  0  0  0
   -3.4660   11.0950  -13.4060 C   0  0  2  0  0  0  0  0  0  0  0  0
   -3.9980   11.6020  -12.6010 H   0  0  0  0  0  0  0  0  0  0  0  0
   -3.1980   12.0700  -14.5610 C   0  0  0  0  0  3  0  0  0  0  0  0
   -2.6940   11.6660  -15.6100 O   0  0  0  0  0  0  0  0  0  0  0  0
   -2.1230   10.5980  -12.8370 C   0  0  0  0  0  0  0  0  0  0  0  0
   -1.6160   10.0380  -13.6230 H   0  0  0  0  0  0  0  0  0  0  0  0
   -1.2160   11.7770  -12.4230 C   0  0  0  0  0  0  0  0  0  0  0  0
   -1.0140   12.4010  -13.2930 H   0  0  0  0  0  0  0  0  0  0  0  0
   -1.7190   12.3690  -11.6580 H   0  0  0  0  0  0  0  0  0  0  0  0
   -0.2780   11.3900  -12.0260 H   0  0  0  0  0  0  0  0  0  0  0  0
   -2.3600    9.6900  -11.6480 C   0  0  0  0  0  0  0  0  0  0  0  0
   -2.8940   10.2400  -10.8730 H   0  0  0  0  0  0  0  0  0  0  0  0
   -2.9540    8.8310  -11.9610 H   0  0  0  0  0  0  0  0  0  0  0  0
   -1.4020    9.3470  -11.2570 H   0  0  0  0  0  0  0  0  0  0  0  0
   10.6540   11.3050   -5.5760 N   0  0  0  0  0  2  0  0  0  0  0  0
   10.3920   12.2850   -5.8030 H   0  0  0  0  0  0  0  0  0  0  0  0
   10.0940   10.6720   -4.3490 C   0  0  2  0  0  0  0  0  0  0  0  0
   10.8680    9.9920   -3.9930 H   0  0  0  0  0  0  0  0  0  0  0  0
    8.8430    9.8410   -4.6350 C   0  0  0  0  0  0  0  0  0  0  0  0
    8.3760    9.1070   -3.7350 O   0  0  0  0  0  0  0  0  0  0  0  0
    9.8210   11.6790   -3.2540 C   0  0  0  0  0  0  0  0  0  0  0  0
   10.7510   12.1790   -2.9810 H   0  0  0  0  0  0  0  0  0  0  0  0
    9.1020   12.4160   -3.6110 H   0  0  0  0  0  0  0  0  0  0  0  0
    9.4140   11.1650   -2.3830 H   0  0  0  0  0  0  0  0  0  0  0  0
    8.3280    9.9240   -5.8760 N   0  0  0  0  0  0  0  0  0  0  0  0
    8.8050   10.5390   -6.5650 H   0  0  0  0  0  0  0  0  0  0  0  0
    7.1420    9.2010   -6.3060 C   0  0  2  0  0  0  0  0  0  0  0  0
    6.4000    9.3360   -5.5190 H   0  0  0  0  0  0  0  0  0  0  0  0
    7.4250    7.7530   -6.4980 C   0  0  0  0  0  0  0  0  0  0  0  0
    8.5700    7.2700   -6.4620 O   0  0  0  0  0  0  0  0  0  0  0  0
    6.6180    9.7450   -7.6390 C   0  0  0  0  0  0  0  0  0  0  0  0
    5.6190    9.3460   -7.8150 H   0  0  0  0  0  0  0  0  0  0  0  0
    7.2840    9.4210   -8.4390 H   0  0  0  0  0  0  0  0  0  0  0  0
    6.5530   11.1910   -7.6390 O   0  0  0  0  0  0  0  0  0  0  0  0
    6.2110   11.5050   -8.5140 H   0  0  0  0  0  0  0  0  0  0  0  0
    6.3550    7.0580   -6.8100 N   0  0  0  0  0  0  0  0  0  0  0  0
    5.4610    7.5640   -6.9720 H   0  0  0  0  0  0  0  0  0  0  0  0
    6.3700    5.6400   -6.9350 C   0  0  2  0  0  0  0  0  0  0  0  0
    7.1620    5.1570   -6.3640 H   0  0  0  0  0  0  0  0  0  0  0  0
    6.5790    5.3360   -8.4090 C   0  0  0  0  0  3  0  0  0  0  0  0
    6.0940    6.0730   -9.2600 O   0  0  0  0  0  0  0  0  0  0  0  0
    5.0220    5.1190   -6.4090 C   0  0  0  0  0  0  0  0  0  0  0  0
    4.2350    5.7010   -6.8870 H   0  0  0  0  0  0  0  0  0  0  0  0
    4.9330    4.0750   -6.7090 H   0  0  0  0  0  0  0  0  0  0  0  0
    4.7900    5.1880   -4.8740 C   0  0  0  0  0  0  0  0  0  0  0  0
    5.0100    6.2120   -4.5710 H   0  0  0  0  0  0  0  0  0  0  0  0
    3.3110    4.7880   -4.5700 C   0  0  0  0  0  0  0  0  0  0  0  0
    2.6380    5.4790   -5.0770 H   0  0  0  0  0  0  0  0  0  0  0  0
    3.1300    3.7740   -4.9260 H   0  0  0  0  0  0  0  0  0  0  0  0
    3.1370    4.8330   -3.4950 H   0  0  0  0  0  0  0  0  0  0  0  0
    5.7270    4.2640   -4.0560 C   0  0  0  0  0  0  0  0  0  0  0  0
    5.5710    3.2290   -4.3610 H   0  0  0  0  0  0  0  0  0  0  0  0
    6.7640    4.5460   -4.2400 H   0  0  0  0  0  0  0  0  0  0  0  0
    5.5030    4.3690   -2.9940 H   0  0  0  0  0  0  0  0  0  0  0  0
    5.3050    3.2970  -10.3550 N   0  0  0  0  0  2  0  0  0  0  0  0
    5.3190    3.2100   -9.3190 H   0  0  0  0  0  0  0  0  0  0  0  0
    4.1120    2.9140  -11.0930 C   0  0  2  0  0  0  0  0  0  0  0  0
    4.3770    2.2010  -11.8730 H   0  0  0  0  0  0  0  0  0  0  0  0
    3.5250    4.1710  -11.7290 C   0  0  0  0  0  0  0  0  0  0  0  0
    2.8290    4.0740  -12.7370 O   0  0  0  0  0  0  0  0  0  0  0  0
    3.0890    2.1810  -10.2000 C   0  0  0  0  0  0  0  0  0  0  0  0
    2.2390    1.8870  -10.8160 H   0  0  0  0  0  0  0  0  0  0  0  0
    3.5630    1.2900   -9.7890 H   0  0  0  0  0  0  0  0  0  0  0  0
    2.5850    3.0260   -9.0590 C   0  0  0  0  0  0  0  0  0  0  0  0
    3.2850    2.9380   -8.2280 H   0  0  0  0  0  0  0  0  0  0  0  0
    2.5440    4.0640   -9.3890 H   0  0  0  0  0  0  0  0  0  0  0  0
    1.2080    2.6210   -8.5730 C   0  0  0  0  0  0  0  0  0  0  0  0
    0.7530    3.4710   -8.0650 H   0  0  0  0  0  0  0  0  0  0  0  0
    0.6000    2.3470   -9.4350 H   0  0  0  0  0  0  0  0  0  0  0  0
    1.2480    1.4500   -7.6160 C   0  0  0  0  0  0  0  0  0  0  0  0
    2.1300    1.5540   -6.9850 H   0  0  0  0  0  0  0  0  0  0  0  0
    1.3270    0.5330   -8.2000 H   0  0  0  0  0  0  0  0  0  0  0  0
    0.0220    1.3380   -6.7120 N   0  0  0  0  0  4  0  0  0  0  0  0
   -0.0630    2.2000   -6.1370 H   0  0  0  0  0  0  0  0  0  0  0  0
   -0.8300    1.2250   -7.2980 H   0  0  0  0  0  0  0  0  0  0  0  0
    0.1270    0.5130   -6.0880 H   0  0  0  0  0  0  0  0  0  0  0  0
    3.8150    5.3320  -11.1570 N   0  0  0  0  0  0  0  0  0  0  0  0
    4.3440    5.3460  -10.2620 H   0  0  0  0  0  0  0  0  0  0  0  0
    3.4060    6.5700  -11.7600 C   0  0  2  0  0  0  0  0  0  0  0  0
    2.6010    6.3500  -12.4610 H   0  0  0  0  0  0  0  0  0  0  0  0
    4.5830    7.2000  -12.5340 C   0  0  0  0  0  3  0  0  0  0  0  0
    4.3900    7.6850  -13.6440 O   0  0  0  0  0  0  0  0  0  0  0  0
    2.8330    7.5740  -10.6990 C   0  0  0  0  0  0  0  0  0  0  0  0
    1.7520    7.4410  -10.6510 H   0  0  0  0  0  0  0  0  0  0  0  0
    3.2710    7.3350   -9.7300 H   0  0  0  0  0  0  0  0  0  0  0  0
    3.1220    9.0400  -11.0060 C   0  0  0  0  0  0  0  0  0  0  0  0
    2.4190    9.6990  -11.9770 C   0  0  0  0  0  0  0  0  0  0  0  0
    1.6340    9.1740  -12.5200 H   0  0  0  0  0  0  0  0  0  0  0  0
    4.1580    9.7400  -10.3510 C   0  0  0  0  0  0  0  0  0  0  0  0
    4.7460    9.2230   -9.5930 H   0  0  0  0  0  0  0  0  0  0  0  0
    2.7000   11.0760  -12.2930 C   0  0  0  0  0  0  0  0  0  0  0  0
    2.1060   11.5870  -13.0510 H   0  0  0  0  0  0  0  0  0  0  0  0
    4.4620   11.1120  -10.6520 C   0  0  0  0  0  0  0  0  0  0  0  0
    5.2550   11.6380  -10.1200 H   0  0  0  0  0  0  0  0  0  0  0  0
    3.7150   11.7570  -11.6450 C   0  0  0  0  0  0  0  0  0  0  0  0
    3.9630   13.0750  -12.0290 O   0  0  0  0  0  0  0  0  0  0  0  0
    3.3260   13.3360  -12.7410 H   0  0  0  0  0  0  0  0  0  0  0  0
   10.9780    6.3050   -4.9480 N   0  0  0  0  0  2  0  0  0  0  0  0
   10.1880    5.9880   -5.5450 H   0  0  0  0  0  0  0  0  0  0  0  0
   10.7200    6.5580   -3.5270 C   0  0  2  0  0  0  0  0  0  0  0  0
   10.9690    7.6020   -3.3390 H   0  0  0  0  0  0  0  0  0  0  0  0
   11.6250    5.7190   -2.6400 C   0  0  0  0  0  3  0  0  0  0  0  0
   12.2670    6.2920   -1.7970 O   0  0  0  0  0  0  0  0  0  0  0  0
    9.2040    6.4100   -3.1540 C   0  0  0  0  0  0  0  0  0  0  0  0
    8.6640    7.2090   -3.6620 H   0  0  0  0  0  0  0  0  0  0  0  0
    8.8680    5.4460   -3.5360 H   0  0  0  0  0  0  0  0  0  0  0  0
    8.8060    6.4750   -1.6050 C   0  0  0  0  0  0  0  0  0  0  0  0
    9.0730    5.5270   -1.1380 H   0  0  0  0  0  0  0  0  0  0  0  0
    9.3690    7.2810   -1.1350 H   0  0  0  0  0  0  0  0  0  0  0  0
    7.2710    6.7340   -1.3710 C   0  0  0  0  0  0  0  0  0  0  0  0
    6.9860    6.4380   -0.3620 H   0  0  0  0  0  0  0  0  0  0  0  0
    6.6770    6.1740   -2.0940 H   0  0  0  0  0  0  0  0  0  0  0  0
    7.0740    8.1750   -1.5550 N   0  0  0  0  0  0  0  0  0  0  0  0
    7.9010    8.7810   -1.3810 H   0  0  0  0  0  0  0  0  0  0  0  0
    5.9530    8.7950   -1.9200 C   0  0  0  0  0  0  0  0  0  0  0  0
    4.8300    8.1290   -2.1550 N   0  0  0  0  0  4  0  0  0  0  0  0
    4.8090    7.0940   -2.0560 H   0  0  0  0  0  0  0  0  0  0  0  0
    3.9710    8.6420   -2.4390 H   0  0  0  0  0  0  0  0  0  0  0  0
    5.9750   10.1110   -2.0680 N   0  0  0  0  0  0  0  0  0  0  0  0
    6.8550   10.6390   -1.9000 H   0  0  0  0  0  0  0  0  0  0  0  0
    5.1120   10.6170   -2.3520 H   0  0  0  0  0  0  0  0  0  0  0  0
   11.6800   13.6970    2.1500 N   0  0  0  0  0  2  0  0  0  0  0  0
   11.0060   14.3750    1.7400 H   0  0  0  0  0  0  0  0  0  0  0  0
   12.3750   12.7460    1.2760 C   0  0  2  0  0  0  0  0  0  0  0  0
   12.5890   11.8420    1.8460 H   0  0  0  0  0  0  0  0  0  0  0  0
   13.6730   13.4000    0.7880 C   0  0  0  0  0  3  0  0  0  0  0  0
   13.6690   14.3550    0.0170 O   0  0  0  0  0  0  0  0  0  0  0  0
   11.5200   12.3200    0.0890 C   0  0  0  0  0  0  0  0  0  0  0  0
   11.3570   13.1990   -0.5350 H   0  0  0  0  0  0  0  0  0  0  0  0
   12.0810   11.5750   -0.4740 H   0  0  0  0  0  0  0  0  0  0  0  0
   10.1640   11.7270    0.4160 C   0  0  0  0  0  0  0  0  0  0  0  0
   10.0310   10.3500    0.7370 C   0  0  0  0  0  0  0  0  0  0  0  0
   10.9170    9.7150    0.7680 H   0  0  0  0  0  0  0  0  0  0  0  0
    9.0060   12.5450    0.3790 C   0  0  0  0  0  0  0  0  0  0  0  0
    9.1020   13.6000    0.1210 H   0  0  0  0  0  0  0  0  0  0  0  0
    8.7740    9.8000    1.0140 C   0  0  0  0  0  0  0  0  0  0  0  0
    8.6750    8.7420    1.2580 H   0  0  0  0  0  0  0  0  0  0  0  0
    7.7410   12.0170    0.6690 C   0  0  0  0  0  0  0  0  0  0  0  0
    6.8570   12.6550    0.6610 H   0  0  0  0  0  0  0  0  0  0  0  0
    7.6340   10.6360    0.9730 C   0  0  0  0  0  0  0  0  0  0  0  0
    6.3730   10.1120    1.2340 O   0  0  0  0  0  0  0  0  0  0  0  0
    6.4530    9.1450    1.4290 H   0  0  0  0  0  0  0  0  0  0  0  0
    6.8140   13.4770   -8.2220 H   0  0  0  0  0  0  0  0  0  0  0  0
   -8.7350    4.5970   -6.3320 H   0  0  0  0  0  0  0  0  0  0  0  0
  1  2  1  0
  1  3  1  0
  3  4  1  6
  3  5  1  0
  3  7  1  0
  5  6  2  0
  7  8  1  0
  7  9  1  0
  7 10  1  0
 10 11  2  0
 10 12  1  0
 12250  1  0
 13 14  1  0
 13 15  1  0
 15 16  1  6
 15 17  1  0
 15 19  1  0
 17 18  2  0
 17 24  1  0
 19 20  1  0
 19 21  1  0
 19 22  1  0
 22 23  1  0
 24 25  1  0
 24 26  1  0
 26 27  1  1
 26 28  1  0
 26 30  1  0
 28 29  2  0
 28 35  1  0
 30 31  1  0
 30 32  1  0
 30 33  1  0
 33 34  1  0
 35 36  1  0
 35 37  1  0
 37 38  1  6
 37 39  1  0
 37 41  1  0
 39 40  2  0
 41 42  1  0
 41 43  1  0
 41 44  1  0
 44 45  2  0
 44 47  1  0
 45 46  1  0
 45 49  1  0
 47 48  1  0
 47 51  2  0
 49 50  1  0
 49 53  2  0
 51 52  1  0
 51 53  1  0
 53 54  1  0
 55 56  1  0
 55 57  1  0
 57 58  1  6
 57 59  1  0
 57 61  1  0
 59 60  2  0
 61 62  1  0
 61 63  1  0
 61 67  1  0
 63 64  1  0
 63 65  1  0
 63 66  1  0
 67 68  1  0
 67 69  1  0
 67 70  1  0
 71 72  1  0
 71 73  1  0
 73 74  1  1
 73 75  1  0
 73 77  1  0
 75 76  2  0
 77 78  1  6
 77 79  1  0
 77 82  1  0
 79 80  1  0
 79 81  1  0
 79 86  1  0
 82 83  1  0
 82 84  1  0
 82 85  1  0
 86 87  1  0
 86 88  1  0
 86 89  1  0
 90 91  1  0
 90 92  1  0
 92 93  1  6
 92 94  1  0
 92 96  1  0
 94 95  2  0
 96 97  1  0
 96 98  1  0
 96 99  1  0
 99100  1  0
 99101  2  0
100103  2  0
101102  1  0
101105  1  0
103104  1  0
103105  1  0
105251  1  0
106107  1  0
106108  1  0
108109  1  1
108110  1  0
108112  1  0
110111  2  0
112113  1  0
112114  1  0
112118  1  0
114115  1  0
114116  1  0
114117  1  0
118119  1  0
118120  1  0
118121  1  0
122123  1  0
122124  1  0
124125  1  1
124126  1  0
124128  1  0
126127  2  0
126132  1  0
128129  1  0
128130  1  0
128131  1  0
132133  1  0
132134  1  0
134135  1  1
134136  1  0
134138  1  0
136137  2  0
136143  1  0
138139  1  0
138140  1  0
138141  1  0
141142  1  0
143144  1  0
143145  1  0
145146  1  1
145147  1  0
145149  1  0
147148  2  0
149150  1  0
149151  1  0
149152  1  0
152153  1  0
152154  1  0
152158  1  0
154155  1  0
154156  1  0
154157  1  0
158159  1  0
158160  1  0
158161  1  0
162163  1  0
162164  1  0
164165  1  6
164166  1  0
164168  1  0
166167  2  0
166184  1  0
168169  1  0
168170  1  0
168171  1  0
171172  1  0
171173  1  0
171174  1  0
174175  1  0
174176  1  0
174177  1  0
177178  1  0
177179  1  0
177180  1  0
180181  1  0
180182  1  0
180183  1  0
184185  1  0
184186  1  0
186187  1  6
186188  1  0
186190  1  0
188189  2  0
190191  1  0
190192  1  0
190193  1  0
193194  2  0
193196  1  0
194195  1  0
194198  1  0
196197  1  0
196200  2  0
198199  1  0
198202  2  0
200201  1  0
200202  1  0
202203  1  0
203204  1  0
205206  1  0
205207  1  0
207208  1  6
207209  1  0
207211  1  0
209210  2  0
211212  1  0
211213  1  0
211214  1  0
214215  1  0
214216  1  0
214217  1  0
217218  1  0
217219  1  0
217220  1  0
220221  1  0
220222  1  0
222223  2  0
222226  1  0
223224  1  0
223225  1  0
226227  1  0
226228  1  0
229230  1  0
229231  1  0
231232  1  1
231233  1  0
231235  1  0
233234  2  0
235236  1  0
235237  1  0
235238  1  0
238239  2  0
238241  1  0
239240  1  0
239243  1  0
241242  1  0
241245  2  0
243244  1  0
243247  2  0
245246  1  0
245247  1  0
247248  1  0
248249  1  0
M  RAD  8   1   2   5   2  13   2  39   2  55   2  59   2  71   2  75   2
M  RAD  8  90   2  94   2 106   2 110   2 122   2 147   2 162   2 188   2
M  CHG  2 180   1 223   1
M  RAD  4 205   2 209   2 229   2 233   2
M  END
$$$$

     RDKit          3D

251245  0  0  0  0  0  0  0  0999 V2000
    8.2390   15.7430  -10.2460 N   0  0  0  0  0  2  0  0  0  0  0  0
    8.4060   14.8450   -9.7480 H   0  0  0  0  0  0  0  0  0  0  0  0
    7.1270   16.5820   -9.8330 C   0  0  2  0  0  0  0  0  0  0  0  0
    6.5240   16.7530  -10.7240 H   0  0  0  0  0  0  0  0  0  0  0  0
    7.5010   17.9630   -9.3590 C   0  0  0  0  0  3  0  0  0  0  0  0
    8.3130   18.1090   -8.4540 O   0  0  0  0  0  0  0  0  0  0  0  0
    6.3630   15.8620   -8.7680 C   0  0  0  0  0  0  0  0  0  0  0  0
    7.0440   15.5910   -7.9610 H   0  0  0  0  0  0  0  0  0  0  0  0
    5.5850   16.5200   -8.3800 H   0  0  0  0  0  0  0  0  0  0  0  0
    5.7360   14.6350   -9.3040 C   0  0  0  0  0  0  0  0  0  0  0  0
    4.8520   14.7920  -10.1880 O   0  0  0  0  0  0  0  0  0  0  0  0
    6.1520   13.5130   -8.8840 O   0  0  0  0  0  0  0  0  0  0  0  0
    1.6580   16.8130  -11.9920 N   0  0  0  0  0  2  0  0  0  0  0  0
    2.3630   16.6600  -11.2430 H   0  0  0  0  0  0  0  0  0  0  0  0
    0.5750   15.8710  -12.1280 C   0  0  2  0  0  0  0  0  0  0  0  0
    0.1290   15.9910  -13.1150 H   0  0  0  0  0  0  0  0  0  0  0  0
   -0.5220   16.1130  -11.1130 C   0  0  0  0  0  0  0  0  0  0  0  0
   -0.2990   16.7340  -10.0760 O   0  0  0  0  0  0  0  0  0  0  0  0
    1.1300   14.4960  -11.9520 C   0  0  0  0  0  0  0  0  0  0  0  0
    0.3140   13.7740  -11.9180 H   0  0  0  0  0  0  0  0  0  0  0  0
    1.6970   14.4460  -11.0220 H   0  0  0  0  0  0  0  0  0  0  0  0
    1.9940   14.1960  -13.0610 O   0  0  0  0  0  0  0  0  0  0  0  0
    2.3660   13.2850  -12.9510 H   0  0  0  0  0  0  0  0  0  0  0  0
   -1.7070   15.5990  -11.3820 N   0  0  0  0  0  0  0  0  0  0  0  0
   -1.8300   15.0390  -12.2500 H   0  0  0  0  0  0  0  0  0  0  0  0
   -2.8500   15.7940  -10.4960 C   0  0  2  0  0  0  0  0  0  0  0  0
   -2.4940   15.6940   -9.4710 H   0  0  0  0  0  0  0  0  0  0  0  0
   -3.9360   14.7420  -10.7100 C   0  0  0  0  0  0  0  0  0  0  0  0
   -4.1170   14.2150  -11.8220 O   0  0  0  0  0  0  0  0  0  0  0  0
   -3.4310   17.1680  -10.7260 C   0  0  0  0  0  0  0  0  0  0  0  0
   -3.6970   17.2780  -11.7770 H   0  0  0  0  0  0  0  0  0  0  0  0
   -2.6920   17.9230  -10.4590 H   0  0  0  0  0  0  0  0  0  0  0  0
   -4.5930   17.3400   -9.9250 O   0  0  0  0  0  0  0  0  0  0  0  0
   -4.9690   18.2430  -10.0800 H   0  0  0  0  0  0  0  0  0  0  0  0
   -4.6520   14.4140   -9.6350 N   0  0  0  0  0  0  0  0  0  0  0  0
   -4.3590   14.7920   -8.7110 H   0  0  0  0  0  0  0  0  0  0  0  0
   -5.8320   13.5460   -9.6910 C   0  0  2  0  0  0  0  0  0  0  0  0
   -5.6450   12.7780  -10.4420 H   0  0  0  0  0  0  0  0  0  0  0  0
   -7.0770   14.3290  -10.1220 C   0  0  0  0  0  3  0  0  0  0  0  0
   -8.0250   13.7390  -10.5890 O   0  0  0  0  0  0  0  0  0  0  0  0
   -6.0610   12.8570   -8.3570 C   0  0  0  0  0  0  0  0  0  0  0  0
   -5.9730   13.6020   -7.5670 H   0  0  0  0  0  0  0  0  0  0  0  0
   -7.0700   12.4440   -8.3540 H   0  0  0  0  0  0  0  0  0  0  0  0
   -5.0730   11.7210   -8.0610 C   0  0  0  0  0  0  0  0  0  0  0  0
   -4.0720   11.8810   -7.1020 C   0  0  0  0  0  0  0  0  0  0  0  0
   -3.9860   12.8270   -6.5670 H   0  0  0  0  0  0  0  0  0  0  0  0
   -5.1740   10.4980   -8.7080 C   0  0  0  0  0  0  0  0  0  0  0  0
   -5.9560   10.3530   -9.4530 H   0  0  0  0  0  0  0  0  0  0  0  0
   -3.1820   10.8480   -6.8190 C   0  0  0  0  0  0  0  0  0  0  0  0
   -2.4060   10.9870   -6.0660 H   0  0  0  0  0  0  0  0  0  0  0  0
   -4.2920    9.4420   -8.4250 C   0  0  0  0  0  0  0  0  0  0  0  0
   -4.4060    8.4830   -8.9310 H   0  0  0  0  0  0  0  0  0  0  0  0
   -3.2860    9.6220   -7.5080 C   0  0  0  0  0  0  0  0  0  0  0  0
   -2.5720    8.8220   -7.3140 H   0  0  0  0  0  0  0  0  0  0  0  0
   -3.3140    5.0230  -13.0570 N   0  0  0  0  0  2  0  0  0  0  0  0
   -4.1400    5.6150  -12.8370 H   0  0  0  0  0  0  0  0  0  0  0  0
   -2.5170    4.4610  -11.9940 C   0  0  2  0  0  0  0  0  0  0  0  0
   -1.7250    3.8470  -12.4230 H   0  0  0  0  0  0  0  0  0  0  0  0
   -3.4380    3.6400  -11.1070 C   0  0  0  0  0  3  0  0  0  0  0  0
   -4.4710    4.1900  -10.6370 O   0  0  0  0  0  0  0  0  0  0  0  0
   -1.8540    5.5840  -11.1350 C   0  0  0  0  0  0  0  0  0  0  0  0
   -2.6490    6.2450  -10.7900 H   0  0  0  0  0  0  0  0  0  0  0  0
   -1.1450    4.9970   -9.9330 C   0  0  0  0  0  0  0  0  0  0  0  0
   -1.8650    4.4610   -9.3150 H   0  0  0  0  0  0  0  0  0  0  0  0
   -0.3700    4.3090  -10.2700 H   0  0  0  0  0  0  0  0  0  0  0  0
   -0.6920    5.8000   -9.3520 H   0  0  0  0  0  0  0  0  0  0  0  0
   -0.8790    6.3820  -11.9530 C   0  0  0  0  0  0  0  0  0  0  0  0
   -0.0980    5.7220  -12.3300 H   0  0  0  0  0  0  0  0  0  0  0  0
   -1.4020    6.8440  -12.7900 H   0  0  0  0  0  0  0  0  0  0  0  0
   -0.4320    7.1570  -11.3300 H   0  0  0  0  0  0  0  0  0  0  0  0
   -4.5210    2.0210   -7.7850 N   0  0  0  0  0  2  0  0  0  0  0  0
   -5.4600    2.1270   -8.2190 H   0  0  0  0  0  0  0  0  0  0  0  0
   -4.3760    2.2860   -6.3400 C   0  0  2  0  0  0  0  0  0  0  0  0
   -3.3700    1.9630   -6.0710 H   0  0  0  0  0  0  0  0  0  0  0  0
   -5.3740    1.4700   -5.5200 C   0  0  0  0  0  3  0  0  0  0  0  0
   -6.6090    1.7400   -5.5300 O   0  0  0  0  0  0  0  0  0  0  0  0
   -4.4620    3.8040   -5.9870 C   0  0  2  0  0  0  0  0  0  0  0  0
   -5.4400    4.1780   -6.2900 H   0  0  0  0  0  0  0  0  0  0  0  0
   -3.3750    4.5860   -6.7450 C   0  0  0  0  0  0  0  0  0  0  0  0
   -2.4260    4.4330   -6.2310 H   0  0  0  0  0  0  0  0  0  0  0  0
   -3.3090    4.1820   -7.7550 H   0  0  0  0  0  0  0  0  0  0  0  0
   -4.3050    4.0130   -4.4580 C   0  0  0  0  0  0  0  0  0  0  0  0
   -5.1000    3.4810   -3.9360 H   0  0  0  0  0  0  0  0  0  0  0  0
   -3.3370    3.6280   -4.1370 H   0  0  0  0  0  0  0  0  0  0  0  0
   -4.3670    5.0770   -4.2300 H   0  0  0  0  0  0  0  0  0  0  0  0
   -3.6210    6.0930   -6.8510 C   0  0  0  0  0  0  0  0  0  0  0  0
   -4.5590    6.2710   -7.3760 H   0  0  0  0  0  0  0  0  0  0  0  0
   -3.6760    6.5220   -5.8510 H   0  0  0  0  0  0  0  0  0  0  0  0
   -2.8020    6.5560   -7.4010 H   0  0  0  0  0  0  0  0  0  0  0  0
   -7.1030    4.9550  -11.2140 N   0  0  0  0  0  2  0  0  0  0  0  0
   -6.1220    4.6450  -11.0650 H   0  0  0  0  0  0  0  0  0  0  0  0
   -7.3690    6.3930  -11.2260 C   0  0  2  0  0  0  0  0  0  0  0  0
   -8.4260    6.5500  -11.4390 H   0  0  0  0  0  0  0  0  0  0  0  0
   -6.5510    7.1110  -12.3230 C   0  0  0  0  0  3  0  0  0  0  0  0
   -5.3670    6.8340  -12.4820 O   0  0  0  0  0  0  0  0  0  0  0  0
   -6.9990    6.9690   -9.8590 C   0  0  0  0  0  0  0  0  0  0  0  0
   -5.9460    6.7590   -9.6690 H   0  0  0  0  0  0  0  0  0  0  0  0
   -7.1550    8.0480   -9.8840 H   0  0  0  0  0  0  0  0  0  0  0  0
   -7.8100    6.3970   -8.7320 C   0  0  0  0  0  0  0  0  0  0  0  0
   -9.1120    6.7880   -8.4820 N   0  0  0  0  0  0  0  0  0  0  0  0
   -7.5200    5.4300   -7.8250 C   0  0  0  0  0  0  0  0  0  0  0  0
   -6.5730    4.9000   -7.7210 H   0  0  0  0  0  0  0  0  0  0  0  0
   -9.5840    6.0790   -7.4730 C   0  0  0  0  0  0  0  0  0  0  0  0
  -10.5840    6.1660   -7.0470 H   0  0  0  0  0  0  0  0  0  0  0  0
   -8.6430    5.2470   -7.0660 N   0  0  0  0  0  0  0  0  0  0  0  0
   -4.3430    9.9870  -13.8600 N   0  0  0  0  0  2  0  0  0  0  0  0
   -3.9430    9.2670  -14.4950 H   0  0  0  0  0  0  0  0  0  0  0  0
   -3.4660   11.0950  -13.4060 C   0  0  2  0  0  0  0  0  0  0  0  0
   -3.9980   11.6020  -12.6010 H   0  0  0  0  0  0  0  0  0  0  0  0
   -3.1980   12.0700  -14.5610 C   0  0  0  0  0  3  0  0  0  0  0  0
   -2.6940   11.6660  -15.6100 O   0  0  0  0  0  0  0  0  0  0  0  0
   -2.1230   10.5980  -12.8370 C   0  0  0  0  0  0  0  0  0  0  0  0
   -1.6160   10.0380  -13.6230 H   0  0  0  0  0  0  0  0  0  0  0  0
   -1.2160   11.7770  -12.4230 C   0  0  0  0  0  0  0  0  0  0  0  0
   -1.0140   12.4010  -13.2930 H   0  0  0  0  0  0  0  0  0  0  0  0
   -1.7190   12.3690  -11.6580 H   0  0  0  0  0  0  0  0  0  0  0  0
   -0.2780   11.3900  -12.0260 H   0  0  0  0  0  0  0  0  0  0  0  0
   -2.3600    9.6900  -11.6480 C   0  0  0  0  0  0  0  0  0  0  0  0
   -2.8940   10.2400  -10.8730 H   0  0  0  0  0  0  0  0  0  0  0  0
   -2.9540    8.8310  -11.9610 H   0  0  0  0  0  0  0  0  0  0  0  0
   -1.4020    9.3470  -11.2570 H   0  0  0  0  0  0  0  0  0  0  0  0
   10.6540   11.3050   -5.5760 N   0  0  0  0  0  2  0  0  0  0  0  0
   10.3920   12.2850   -5.8030 H   0  0  0  0  0  0  0  0  0  0  0  0
   10.0940   10.6720   -4.3490 C   0  0  2  0  0  0  0  0  0  0  0  0
   10.8680    9.9920   -3.9930 H   0  0  0  0  0  0  0  0  0  0  0  0
    8.8430    9.8410   -4.6350 C   0  0  0  0  0  0  0  0  0  0  0  0
    8.3760    9.1070   -3.7350 O   0  0  0  0  0  0  0  0  0  0  0  0
    9.8210   11.6790   -3.2540 C   0  0  0  0  0  0  0  0  0  0  0  0
   10.7510   12.1790   -2.9810 H   0  0  0  0  0  0  0  0  0  0  0  0
    9.1020   12.4160   -3.6110 H   0  0  0  0  0  0  0  0  0  0  0  0
    9.4140   11.1650   -2.3830 H   0  0  0  0  0  0  0  0  0  0  0  0
    8.3280    9.9240   -5.8760 N   0  0  0  0  0  0  0  0  0  0  0  0
    8.8050   10.5390   -6.5650 H   0  0  0  0  0  0  0  0  0  0  0  0
    7.1420    9.2010   -6.3060 C   0  0  2  0  0  0  0  0  0  0  0  0
    6.4000    9.3360   -5.5190 H   0  0  0  0  0  0  0  0  0  0  0  0
    7.4250    7.7530   -6.4980 C   0  0  0  0  0  0  0  0  0  0  0  0
    8.5700    7.2700   -6.4620 O   0  0  0  0  0  0  0  0  0  0  0  0
    6.6180    9.7450   -7.6390 C   0  0  0  0  0  0  0  0  0  0  0  0
    5.6190    9.3460   -7.8150 H   0  0  0  0  0  0  0  0  0  0  0  0
    7.2840    9.4210   -8.4390 H   0  0  0  0  0  0  0  0  0  0  0  0
    6.5530   11.1910   -7.6390 O   0  0  0  0  0  0  0  0  0  0  0  0
    6.2110   11.5050   -8.5140 H   0  0  0  0  0  0  0  0  0  0  0  0
    6.3550    7.0580   -6.8100 N   0  0  0  0  0  0  0  0  0  0  0  0
    5.4610    7.5640   -6.9720 H   0  0  0  0  0  0  0  0  0  0  0  0
    6.3700    5.6400   -6.9350 C   0  0  2  0  0  0  0  0  0  0  0  0
    7.1620    5.1570   -6.3640 H   0  0  0  0  0  0  0  0  0  0  0  0
    6.5790    5.3360   -8.4090 C   0  0  0  0  0  3  0  0  0  0  0  0
    6.0940    6.0730   -9.2600 O   0  0  0  0  0  0  0  0  0  0  0  0
    5.0220    5.1190   -6.4090 C   0  0  0  0  0  0  0  0  0  0  0  0
    4.2350    5.7010   -6.8870 H   0  0  0  0  0  0  0  0  0  0  0  0
    4.9330    4.0750   -6.7090 H   0  0  0  0  0  0  0  0  0  0  0  0
    4.7900    5.1880   -4.8740 C   0  0  0  0  0  0  0  0  0  0  0  0
    5.0100    6.2120   -4.5710 H   0  0  0  0  0  0  0  0  0  0  0  0
    3.3110    4.7880   -4.5700 C   0  0  0  0  0  0  0  0  0  0  0  0
    2.6380    5.4790   -5.0770 H   0  0  0  0  0  0  0  0  0  0  0  0
    3.1300    3.7740   -4.9260 H   0  0  0  0  0  0  0  0  0  0  0  0
    3.1370    4.8330   -3.4950 H   0  0  0  0  0  0  0  0  0  0  0  0
    5.7270    4.2640   -4.0560 C   0  0  0  0  0  0  0  0  0  0  0  0
    5.5710    3.2290   -4.3610 H   0  0  0  0  0  0  0  0  0  0  0  0
    6.7640    4.5460   -4.2400 H   0  0  0  0  0  0  0  0  0  0  0  0
    5.5030    4.3690   -2.9940 H   0  0  0  0  0  0  0  0  0  0  0  0
    5.3050    3.2970  -10.3550 N   0  0  0  0  0  2  0  0  0  0  0  0
    5.3190    3.2100   -9.3190 H   0  0  0  0  0  0  0  0  0  0  0  0
    4.1120    2.9140  -11.0930 C   0  0  2  0  0  0  0  0  0  0  0  0
    4.3770    2.2010  -11.8730 H   0  0  0  0  0  0  0  0  0  0  0  0
    3.5250    4.1710  -11.7290 C   0  0  0  0  0  0  0  0  0  0  0  0
    2.8290    4.0740  -12.7370 O   0  0  0  0  0  0  0  0  0  0  0  0
    3.0890    2.1810  -10.2000 C   0  0  0  0  0  0  0  0  0  0  0  0
    2.2390    1.8870  -10.8160 H   0  0  0  0  0  0  0  0  0  0  0  0
    3.5630    1.2900   -9.7890 H   0  0  0  0  0  0  0  0  0  0  0  0
    2.5850    3.0260   -9.0590 C   0  0  0  0  0  0  0  0  0  0  0  0
    3.2850    2.9380   -8.2280 H   0  0  0  0  0  0  0  0  0  0  0  0
    2.5440    4.0640   -9.3890 H   0  0  0  0  0  0  0  0  0  0  0  0
    1.2080    2.6210   -8.5730 C   0  0  0  0  0  0  0  0  0  0  0  0
    0.7530    3.4710   -8.0650 H   0  0  0  0  0  0  0  0  0  0  0  0
    0.6000    2.3470   -9.4350 H   0  0  0  0  0  0  0  0  0  0  0  0
    1.2480    1.4500   -7.6160 C   0  0  0  0  0  0  0  0  0  0  0  0
    2.1300    1.5540   -6.9850 H   0  0  0  0  0  0  0  0  0  0  0  0
    1.3270    0.5330   -8.2000 H   0  0  0  0  0  0  0  0  0  0  0  0
    0.0220    1.3380   -6.7120 N   0  0  0  0  0  4  0  0  0  0  0  0
   -0.0630    2.2000   -6.1370 H   0  0  0  0  0  0  0  0  0  0  0  0
   -0.8300    1.2250   -7.2980 H   0  0  0  0  0  0  0  0  0  0  0  0
    0.1270    0.5130   -6.0880 H   0  0  0  0  0  0  0  0  0  0  0  0
    3.8150    5.3320  -11.1570 N   0  0  0  0  0  0  0  0  0  0  0  0
    4.3440    5.3460  -10.2620 H   0  0  0  0  0  0  0  0  0  0  0  0
    3.4060    6.5700  -11.7600 C   0  0  2  0  0  0  0  0  0  0  0  0
    2.6010    6.3500  -12.4610 H   0  0  0  0  0  0  0  0  0  0  0  0
    4.5830    7.2000  -12.5340 C   0  0  0  0  0  3  0  0  0  0  0  0
    4.3900    7.6850  -13.6440 O   0  0  0  0  0  0  0  0  0  0  0  0
    2.8330    7.5740  -10.6990 C   0  0  0  0  0  0  0  0  0  0  0  0
    1.7520    7.4410  -10.6510 H   0  0  0  0  0  0  0  0  0  0  0  0
    3.2710    7.3350   -9.7300 H   0  0  0  0  0  0  0  0  0  0  0  0
    3.1220    9.0400  -11.0060 C   0  0  0  0  0  0  0  0  0  0  0  0
    2.4190    9.6990  -11.9770 C   0  0  0  0  0  0  0  0  0  0  0  0
    1.6340    9.1740  -12.5200 H   0  0  0  0  0  0  0  0  0  0  0  0
    4.1580    9.7400  -10.3510 C   0  0  0  0  0  0  0  0  0  0  0  0
    4.7460    9.2230   -9.5930 H   0  0  0  0  0  0  0  0  0  0  0  0
    2.7000   11.0760  -12.2930 C   0  0  0  0  0  0  0  0  0  0  0  0
    2.1060   11.5870  -13.0510 H   0  0  0  0  0  0  0  0  0  0  0  0
    4.4620   11.1120  -10.6520 C   0  0  0  0  0  0  0  0  0  0  0  0
    5.2550   11.6380  -10.1200 H   0  0  0  0  0  0  0  0  0  0  0  0
    3.7150   11.7570  -11.6450 C   0  0  0  0  0  0  0  0  0  0  0  0
    3.9630   13.0750  -12.0290 O   0  0  0  0  0  0  0  0  0  0  0  0
    3.3260   13.3360  -12.7410 H   0  0  0  0  0  0  0  0  0  0  0  0
   10.9780    6.3050   -4.9480 N   0  0  0  0  0  2  0  0  0  0  0  0
   10.1880    5.9880   -5.5450 H   0  0  0  0  0  0  0  0  0  0  0  0
   10.7200    6.5580   -3.5270 C   0  0  2  0  0  0  0  0  0  0  0  0
   10.9690    7.6020   -3.3390 H   0  0  0  0  0  0  0  0  0  0  0  0
   11.6250    5.7190   -2.6400 C   0  0  0  0  0  3  0  0  0  0  0  0
   12.2670    6.2920   -1.7970 O   0  0  0  0  0  0  0  0  0  0  0  0
    9.2040    6.4100   -3.1540 C   0  0  0  0  0  0  0  0  0  0  0  0
    8.6640    7.2090   -3.6620 H   0  0  0  0  0  0  0  0  0  0  0  0
    8.8680    5.4460   -3.5360 H   0  0  0  0  0  0  0  0  0  0  0  0
    8.8060    6.4750   -1.6050 C   0  0  0  0  0  0  0  0  0  0  0  0
    9.0730    5.5270   -1.1380 H   0  0  0  0  0  0  0  0  0  0  0  0
    9.3690    7.2810   -1.1350 H   0  0  0  0  0  0  0  0  0  0  0  0
    7.2710    6.7340   -1.3710 C   0  0  0  0  0  0  0  0  0  0  0  0
    6.9860    6.4380   -0.3620 H   0  0  0  0  0  0  0  0  0  0  0  0
    6.6770    6.1740   -2.0940 H   0  0  0  0  0  0  0  0  0  0  0  0
    7.0740    8.1750   -1.5550 N   0  0  0  0  0  0  0  0  0  0  0  0
    7.9010    8.7810   -1.3810 H   0  0  0  0  0  0  0  0  0  0  0  0
    5.9530    8.7950   -1.9200 C   0  0  0  0  0  0  0  0  0  0  0  0
    4.8300    8.1290   -2.1550 N   0  0  0  0  0  4  0  0  0  0  0  0
    4.8090    7.0940   -2.0560 H   0  0  0  0  0  0  0  0  0  0  0  0
    3.9710    8.6420   -2.4390 H   0  0  0  0  0  0  0  0  0  0  0  0
    5.9750   10.1110   -2.0680 N   0  0  0  0  0  0  0  0  0  0  0  0
    6.8550   10.6390   -1.9000 H   0  0  0  0  0  0  0  0  0  0  0  0
    5.1120   10.6170   -2.3520 H   0  0  0  0  0  0  0  0  0  0  0  0
   11.6800   13.6970    2.1500 N   0  0  0  0  0  2  0  0  0  0  0  0
   11.0060   14.3750    1.7400 H   0  0  0  0  0  0  0  0  0  0  0  0
   12.3750   12.7460    1.2760 C   0  0  2  0  0  0  0  0  0  0  0  0
   12.5890   11.8420    1.8460 H   0  0  0  0  0  0  0  0  0  0  0  0
   13.6730   13.4000    0.7880 C   0  0  0  0  0  3  0  0  0  0  0  0
   13.6690   14.3550    0.0170 O   0  0  0  0  0  0  0  0  0  0  0  0
   11.5200   12.3200    0.0890 C   0  0  0  0  0  0  0  0  0  0  0  0
   11.3570   13.1990   -0.5350 H   0  0  0  0  0  0  0  0  0  0  0  0
   12.0810   11.5750   -0.4740 H   0  0  0  0  0  0  0  0  0  0  0  0
   10.1640   11.7270    0.4160 C   0  0  0  0  0  0  0  0  0  0  0  0
   10.0310   10.3500    0.7370 C   0  0  0  0  0  0  0  0  0  0  0  0
   10.9170    9.7150    0.7680 H   0  0  0  0  0  0  0  0  0  0  0  0
    9.0060   12.5450    0.3790 C   0  0  0  0  0  0  0  0  0  0  0  0
    9.1020   13.6000    0.1210 H   0  0  0  0  0  0  0  0  0  0  0  0
    8.7740    9.8000    1.0140 C   0  0  0  0  0  0  0  0  0  0  0  0
    8.6750    8.7420    1.2580 H   0  0  0  0  0  0  0  0  0  0  0  0
    7.7410   12.0170    0.6690 C   0  0  0  0  0  0  0  0  0  0  0  0
    6.8570   12.6550    0.6610 H   0  0  0  0  0  0  0  0  0  0  0  0
    7.6340   10.6360    0.9730 C   0  0  0  0  0  0  0  0  0  0  0  0
    6.3730   10.1120    1.2340 O   0  0  0  0  0  0  0  0  0  0  0  0
    6.4530    9.1450    1.4290 H   0  0  0  0  0  0  0  0  0  0  0  0
    6.8140   13.4770   -8.2220 H   0  0  0  0  0  0  0  0  0  0  0  0
   -8.7350    4.5970   -6.3320 H   0  0  0  0  0  0  0  0  0  0  0  0
  1  2  1  0
  1  3  1  0
  3  4  1  6
  3  5  1  0
  3  7  1  0
  5  6  2  0
  7  8  1  0
  7  9  1  0
  7 10  1  0
 10 11  2  0
 10 12  1  0
 12250  1  0
 13 14  1  0
 13 15  1  0
 15 16  1  6
 15 17  1  0
 15 19  1  0
 17 18  2  0
 17 24  1  0
 19 20  1  0
 19 21  1  0
 19 22  1  0
 22 23  1  0
 24 25  1  0
 24 26  1  0
 26 27  1  1
 26 28  1  0
 26 30  1  0
 28 29  2  0
 28 35  1  0
 30 31  1  0
 30 32  1  0
 30 33  1  0
 33 34  1  0
 35 36  1  0
 35 37  1  0
 37 38  1  6
 37 39  1  0
 37 41  1  0
 39 40  2  0
 41 42  1  0
 41 43  1  0
 41 44  1  0
 44 45  2  0
 44 47  1  0
 45 46  1  0
 45 49  1  0
 47 48  1  0
 47 51  2  0
 49 50  1  0
 49 53  2  0
 51 52  1  0
 51 53  1  0
 53 54  1  0
 55 56  1  0
 55 57  1  0
 57 58  1  6
 57 59  1  0
 57 61  1  0
 59 60  2  0
 61 62  1  0
 61 63  1  0
 61 67  1  0
 63 64  1  0
 63 65  1  0
 63 66  1  0
 67 68  1  0
 67 69  1  0
 67 70  1  0
 71 72  1  0
 71 73  1  0
 73 74  1  1
 73 75  1  0
 73 77  1  0
 75 76  2  0
 77 78  1  6
 77 79  1  0
 77 82  1  0
 79 80  1  0
 79 81  1  0
 79 86  1  0
 82 83  1  0
 82 84  1  0
 82 85  1  0
 86 87  1  0
 86 88  1  0
 86 89  1  0
 90 91  1  0
 90 92  1  0
 92 93  1  6
 92 94  1  0
 92 96  1  0
 94 95  2  0
 96 97  1  0
 96 98  1  0
 96 99  1  0
 99100  1  0
 99101  2  0
100103  2  0
101102  1  0
101105  1  0
103104  1  0
103105  1  0
105251  1  0
106107  1  0
106108  1  0
108109  1  1
108110  1  0
108112  1  0
110111  2  0
112113  1  0
112114  1  0
112118  1  0
114115  1  0
114116  1  0
114117  1  0
118119  1  0
118120  1  0
118121  1  0
122123  1  0
122124  1  0
124125  1  1
124126  1  0
124128  1  0
126127  2  0
126132  1  0
128129  1  0
128130  1  0
128131  1  0
132133  1  0
132134  1  0
134135  1  1
134136  1  0
134138  1  0
136137  2  0
136143  1  0
138139  1  0
138140  1  0
138141  1  0
141142  1  0
143144  1  0
143145  1  0
145146  1  1
145147  1  0
145149  1  0
147148  2  0
149150  1  0
149151  1  0
149152  1  0
152153  1  0
152154  1  0
152158  1  0
154155  1  0
154156  1  0
154157  1  0
158159  1  0
158160  1  0
158161  1  0
162163  1  0
162164  1  0
164165  1  6
164166  1  0
164168  1  0
166167  2  0
166184  1  0
168169  1  0
168170  1  0
168171  1  0
171172  1  0
171173  1  0
171174  1  0
174175  1  0
174176  1  0
174177  1  0
177178  1  0
177179  1  0
177180  1  0
180181  1  0
180182  1  0
180183  1  0
184185  1  0
184186  1  0
186187  1  6
186188  1  0
186190  1  0
188189  2  0
190191  1  0
190192  1  0
190193  1  0
193194  2  0
193196  1  0
194195  1  0
194198  1  0
196197  1  0
196200  2  0
198199  1  0
198202  2  0
200201  1  0
200202  1  0
202203  1  0
203204  1  0
205206  1  0
205207  1  0
207208  1  6
207209  1  0
207211  1  0
209210  2  0
211212  1  0
211213  1  0
211214  1  0
214215  1  0
214216  1  0
214217  1  0
217218  1  0
217219  1  0
217220  1  0
220221  1  0
220222  1  0
222223  2  0
222226  1  0
223224  1  0
223225  1  0
226227  1  0
226228  1  0
229230  1  0
229231  1  0
231232  1  1
231233  1  0
231235  1  0
233234  2  0
235236  1  0
235237  1  0
235238  1  0
238239  2  0
238241  1  0
239240  1  0
239243  1  0
241242  1  0
241245  2  0
243244  1  0
243247  2  0
245246  1  0
245247  1  0
247248  1  0
248249  1  0
M  RAD  8   1   2   5   2  13   2  39   2  55   2  59   2  71   2  75   2
M  RAD  8  90   2  94   2 106   2 110   2 122   2 147   2 162   2 188   2
M  CHG  2 180   1 223   1
M  RAD  4 205   2 209   2 229   2 233   2
M  END
$$$$

     RDKit          3D

251245  0  0  0  0  0  0  0  0999 V2000
    8.2390   15.7430  -10.2460 N   0  0  0  0  0  2  0  0  0  0  0  0
    8.4060   14.8450   -9.7480 H   0  0  0  0  0  0  0  0  0  0  0  0
    7.1270   16.5820   -9.8330 C   0  0  2  0  0  0  0  0  0  0  0  0
    6.5240   16.7530  -10.7240 H   0  0  0  0  0  0  0  0  0  0  0  0
    7.5010   17.9630   -9.3590 C   0  0  0  0  0  3  0  0  0  0  0  0
    8.3130   18.1090   -8.4540 O   0  0  0  0  0  0  0  0  0  0  0  0
    6.3630   15.8620   -8.7680 C   0  0  0  0  0  0  0  0  0  0  0  0
    7.0440   15.5910   -7.9610 H   0  0  0  0  0  0  0  0  0  0  0  0
    5.5850   16.5200   -8.3800 H   0  0  0  0  0  0  0  0  0  0  0  0
    5.7360   14.6350   -9.3040 C   0  0  0  0  0  0  0  0  0  0  0  0
    4.8520   14.7920  -10.1880 O   0  0  0  0  0  0  0  0  0  0  0  0
    6.1520   13.5130   -8.8840 O   0  0  0  0  0  0  0  0  0  0  0  0
    1.6580   16.8130  -11.9920 N   0  0  0  0  0  2  0  0  0  0  0  0
    2.3630   16.6600  -11.2430 H   0  0  0  0  0  0  0  0  0  0  0  0
    0.5750   15.8710  -12.1280 C   0  0  2  0  0  0  0  0  0  0  0  0
    0.1290   15.9910  -13.1150 H   0  0  0  0  0  0  0  0  0  0  0  0
   -0.5220   16.1130  -11.1130 C   0  0  0  0  0  0  0  0  0  0  0  0
   -0.2990   16.7340  -10.0760 O   0  0  0  0  0  0  0  0  0  0  0  0
    1.1300   14.4960  -11.9520 C   0  0  0  0  0  0  0  0  0  0  0  0
    0.3140   13.7740  -11.9180 H   0  0  0  0  0  0  0  0  0  0  0  0
    1.6970   14.4460  -11.0220 H   0  0  0  0  0  0  0  0  0  0  0  0
    1.9940   14.1960  -13.0610 O   0  0  0  0  0  0  0  0  0  0  0  0
    2.3660   13.2850  -12.9510 H   0  0  0  0  0  0  0  0  0  0  0  0
   -1.7070   15.5990  -11.3820 N   0  0  0  0  0  0  0  0  0  0  0  0
   -1.8300   15.0390  -12.2500 H   0  0  0  0  0  0  0  0  0  0  0  0
   -2.8500   15.7940  -10.4960 C   0  0  2  0  0  0  0  0  0  0  0  0
   -2.4940   15.6940   -9.4710 H   0  0  0  0  0  0  0  0  0  0  0  0
   -3.9360   14.7420  -10.7100 C   0  0  0  0  0  0  0  0  0  0  0  0
   -4.1170   14.2150  -11.8220 O   0  0  0  0  0  0  0  0  0  0  0  0
   -3.4310   17.1680  -10.7260 C   0  0  0  0  0  0  0  0  0  0  0  0
   -3.6970   17.2780  -11.7770 H   0  0  0  0  0  0  0  0  0  0  0  0
   -2.6920   17.9230  -10.4590 H   0  0  0  0  0  0  0  0  0  0  0  0
   -4.5930   17.3400   -9.9250 O   0  0  0  0  0  0  0  0  0  0  0  0
   -4.9690   18.2430  -10.0800 H   0  0  0  0  0  0  0  0  0  0  0  0
   -4.6520   14.4140   -9.6350 N   0  0  0  0  0  0  0  0  0  0  0  0
   -4.3590   14.7920   -8.7110 H   0  0  0  0  0  0  0  0  0  0  0  0
   -5.8320   13.5460   -9.6910 C   0  0  2  0  0  0  0  0  0  0  0  0
   -5.6450   12.7780  -10.4420 H   0  0  0  0  0  0  0  0  0  0  0  0
   -7.0770   14.3290  -10.1220 C   0  0  0  0  0  3  0  0  0  0  0  0
   -8.0250   13.7390  -10.5890 O   0  0  0  0  0  0  0  0  0  0  0  0
   -6.0610   12.8570   -8.3570 C   0  0  0  0  0  0  0  0  0  0  0  0
   -5.9730   13.6020   -7.5670 H   0  0  0  0  0  0  0  0  0  0  0  0
   -7.0700   12.4440   -8.3540 H   0  0  0  0  0  0  0  0  0  0  0  0
   -5.0730   11.7210   -8.0610 C   0  0  0  0  0  0  0  0  0  0  0  0
   -4.0720   11.8810   -7.1020 C   0  0  0  0  0  0  0  0  0  0  0  0
   -3.9860   12.8270   -6.5670 H   0  0  0  0  0  0  0  0  0  0  0  0
   -5.1740   10.4980   -8.7080 C   0  0  0  0  0  0  0  0  0  0  0  0
   -5.9560   10.3530   -9.4530 H   0  0  0  0  0  0  0  0  0  0  0  0
   -3.1820   10.8480   -6.8190 C   0  0  0  0  0  0  0  0  0  0  0  0
   -2.4060   10.9870   -6.0660 H   0  0  0  0  0  0  0  0  0  0  0  0
   -4.2920    9.4420   -8.4250 C   0  0  0  0  0  0  0  0  0  0  0  0
   -4.4060    8.4830   -8.9310 H   0  0  0  0  0  0  0  0  0  0  0  0
   -3.2860    9.6220   -7.5080 C   0  0  0  0  0  0  0  0  0  0  0  0
   -2.5720    8.8220   -7.3140 H   0  0  0  0  0  0  0  0  0  0  0  0
   -3.3140    5.0230  -13.0570 N   0  0  0  0  0  2  0  0  0  0  0  0
   -4.1400    5.6150  -12.8370 H   0  0  0  0  0  0  0  0  0  0  0  0
   -2.5170    4.4610  -11.9940 C   0  0  2  0  0  0  0  0  0  0  0  0
   -1.7250    3.8470  -12.4230 H   0  0  0  0  0  0  0  0  0  0  0  0
   -3.4380    3.6400  -11.1070 C   0  0  0  0  0  3  0  0  0  0  0  0
   -4.4710    4.1900  -10.6370 O   0  0  0  0  0  0  0  0  0  0  0  0
   -1.8540    5.5840  -11.1350 C   0  0  0  0  0  0  0  0  0  0  0  0
   -2.6490    6.2450  -10.7900 H   0  0  0  0  0  0  0  0  0  0  0  0
   -1.1450    4.9970   -9.9330 C   0  0  0  0  0  0  0  0  0  0  0  0
   -1.8650    4.4610   -9.3150 H   0  0  0  0  0  0  0  0  0  0  0  0
   -0.3700    4.3090  -10.2700 H   0  0  0  0  0  0  0  0  0  0  0  0
   -0.6920    5.8000   -9.3520 H   0  0  0  0  0  0  0  0  0  0  0  0
   -0.8790    6.3820  -11.9530 C   0  0  0  0  0  0  0  0  0  0  0  0
   -0.0980    5.7220  -12.3300 H   0  0  0  0  0  0  0  0  0  0  0  0
   -1.4020    6.8440  -12.7900 H   0  0  0  0  0  0  0  0  0  0  0  0
   -0.4320    7.1570  -11.3300 H   0  0  0  0  0  0  0  0  0  0  0  0
   -4.5210    2.0210   -7.7850 N   0  0  0  0  0  2  0  0  0  0  0  0
   -5.4600    2.1270   -8.2190 H   0  0  0  0  0  0  0  0  0  0  0  0
   -4.3760    2.2860   -6.3400 C   0  0  2  0  0  0  0  0  0  0  0  0
   -3.3700    1.9630   -6.0710 H   0  0  0  0  0  0  0  0  0  0  0  0
   -5.3740    1.4700   -5.5200 C   0  0  0  0  0  3  0  0  0  0  0  0
   -6.6090    1.7400   -5.5300 O   0  0  0  0  0  0  0  0  0  0  0  0
   -4.4620    3.8040   -5.9870 C   0  0  2  0  0  0  0  0  0  0  0  0
   -5.4400    4.1780   -6.2900 H   0  0  0  0  0  0  0  0  0  0  0  0
   -3.3750    4.5860   -6.7450 C   0  0  0  0  0  0  0  0  0  0  0  0
   -2.4260    4.4330   -6.2310 H   0  0  0  0  0  0  0  0  0  0  0  0
   -3.3090    4.1820   -7.7550 H   0  0  0  0  0  0  0  0  0  0  0  0
   -4.3050    4.0130   -4.4580 C   0  0  0  0  0  0  0  0  0  0  0  0
   -5.1000    3.4810   -3.9360 H   0  0  0  0  0  0  0  0  0  0  0  0
   -3.3370    3.6280   -4.1370 H   0  0  0  0  0  0  0  0  0  0  0  0
   -4.3670    5.0770   -4.2300 H   0  0  0  0  0  0  0  0  0  0  0  0
   -3.6210    6.0930   -6.8510 C   0  0  0  0  0  0  0  0  0  0  0  0
   -4.5590    6.2710   -7.3760 H   0  0  0  0  0  0  0  0  0  0  0  0
   -3.6760    6.5220   -5.8510 H   0  0  0  0  0  0  0  0  0  0  0  0
   -2.8020    6.5560   -7.4010 H   0  0  0  0  0  0  0  0  0  0  0  0
   -7.1030    4.9550  -11.2140 N   0  0  0  0  0  2  0  0  0  0  0  0
   -6.1220    4.6450  -11.0650 H   0  0  0  0  0  0  0  0  0  0  0  0
   -7.3690    6.3930  -11.2260 C   0  0  2  0  0  0  0  0  0  0  0  0
   -8.4260    6.5500  -11.4390 H   0  0  0  0  0  0  0  0  0  0  0  0
   -6.5510    7.1110  -12.3230 C   0  0  0  0  0  3  0  0  0  0  0  0
   -5.3670    6.8340  -12.4820 O   0  0  0  0  0  0  0  0  0  0  0  0
   -6.9990    6.9690   -9.8590 C   0  0  0  0  0  0  0  0  0  0  0  0
   -5.9460    6.7590   -9.6690 H   0  0  0  0  0  0  0  0  0  0  0  0
   -7.1550    8.0480   -9.8840 H   0  0  0  0  0  0  0  0  0  0  0  0
   -7.8100    6.3970   -8.7320 C   0  0  0  0  0  0  0  0  0  0  0  0
   -9.1120    6.7880   -8.4820 N   0  0  0  0  0  0  0  0  0  0  0  0
   -7.5200    5.4300   -7.8250 C   0  0  0  0  0  0  0  0  0  0  0  0
   -6.5730    4.9000   -7.7210 H   0  0  0  0  0  0  0  0  0  0  0  0
   -9.5840    6.0790   -7.4730 C   0  0  0  0  0  0  0  0  0  0  0  0
  -10.5840    6.1660   -7.0470 H   0  0  0  0  0  0  0  0  0  0  0  0
   -8.6430    5.2470   -7.0660 N   0  0  0  0  0  0  0  0  0  0  0  0
   -4.3430    9.9870  -13.8600 N   0  0  0  0  0  2  0  0  0  0  0  0
   -3.9430    9.2670  -14.4950 H   0  0  0  0  0  0  0  0  0  0  0  0
   -3.4660   11.0950  -13.4060 C   0  0  2  0  0  0  0  0  0  0  0  0
   -3.9980   11.6020  -12.6010 H   0  0  0  0  0  0  0  0  0  0  0  0
   -3.1980   12.0700  -14.5610 C   0  0  0  0  0  3  0  0  0  0  0  0
   -2.6940   11.6660  -15.6100 O   0  0  0  0  0  0  0  0  0  0  0  0
   -2.1230   10.5980  -12.8370 C   0  0  0  0  0  0  0  0  0  0  0  0
   -1.6160   10.0380  -13.6230 H   0  0  0  0  0  0  0  0  0  0  0  0
   -1.2160   11.7770  -12.4230 C   0  0  0  0  0  0  0  0  0  0  0  0
   -1.0140   12.4010  -13.2930 H   0  0  0  0  0  0  0  0  0  0  0  0
   -1.7190   12.3690  -11.6580 H   0  0  0  0  0  0  0  0  0  0  0  0
   -0.2780   11.3900  -12.0260 H   0  0  0  0  0  0  0  0  0  0  0  0
   -2.3600    9.6900  -11.6480 C   0  0  0  0  0  0  0  0  0  0  0  0
   -2.8940   10.2400  -10.8730 H   0  0  0  0  0  0  0  0  0  0  0  0
   -2.9540    8.8310  -11.9610 H   0  0  0  0  0  0  0  0  0  0  0  0
   -1.4020    9.3470  -11.2570 H   0  0  0  0  0  0  0  0  0  0  0  0
   10.6540   11.3050   -5.5760 N   0  0  0  0  0  2  0  0  0  0  0  0
   10.3920   12.2850   -5.8030 H   0  0  0  0  0  0  0  0  0  0  0  0
   10.0940   10.6720   -4.3490 C   0  0  2  0  0  0  0  0  0  0  0  0
   10.8680    9.9920   -3.9930 H   0  0  0  0  0  0  0  0  0  0  0  0
    8.8430    9.8410   -4.6350 C   0  0  0  0  0  0  0  0  0  0  0  0
    8.3760    9.1070   -3.7350 O   0  0  0  0  0  0  0  0  0  0  0  0
    9.8210   11.6790   -3.2540 C   0  0  0  0  0  0  0  0  0  0  0  0
   10.7510   12.1790   -2.9810 H   0  0  0  0  0  0  0  0  0  0  0  0
    9.1020   12.4160   -3.6110 H   0  0  0  0  0  0  0  0  0  0  0  0
    9.4140   11.1650   -2.3830 H   0  0  0  0  0  0  0  0  0  0  0  0
    8.3280    9.9240   -5.8760 N   0  0  0  0  0  0  0  0  0  0  0  0
    8.8050   10.5390   -6.5650 H   0  0  0  0  0  0  0  0  0  0  0  0
    7.1420    9.2010   -6.3060 C   0  0  2  0  0  0  0  0  0  0  0  0
    6.4000    9.3360   -5.5190 H   0  0  0  0  0  0  0  0  0  0  0  0
    7.4250    7.7530   -6.4980 C   0  0  0  0  0  0  0  0  0  0  0  0
    8.5700    7.2700   -6.4620 O   0  0  0  0  0  0  0  0  0  0  0  0
    6.6180    9.7450   -7.6390 C   0  0  0  0  0  0  0  0  0  0  0  0
    5.6190    9.3460   -7.8150 H   0  0  0  0  0  0  0  0  0  0  0  0
    7.2840    9.4210   -8.4390 H   0  0  0  0  0  0  0  0  0  0  0  0
    6.5530   11.1910   -7.6390 O   0  0  0  0  0  0  0  0  0  0  0  0
    6.2110   11.5050   -8.5140 H   0  0  0  0  0  0  0  0  0  0  0  0
    6.3550    7.0580   -6.8100 N   0  0  0  0  0  0  0  0  0  0  0  0
    5.4610    7.5640   -6.9720 H   0  0  0  0  0  0  0  0  0  0  0  0
    6.3700    5.6400   -6.9350 C   0  0  2  0  0  0  0  0  0  0  0  0
    7.1620    5.1570   -6.3640 H   0  0  0  0  0  0  0  0  0  0  0  0
    6.5790    5.3360   -8.4090 C   0  0  0  0  0  3  0  0  0  0  0  0
    6.0940    6.0730   -9.2600 O   0  0  0  0  0  0  0  0  0  0  0  0
    5.0220    5.1190   -6.4090 C   0  0  0  0  0  0  0  0  0  0  0  0
    4.2350    5.7010   -6.8870 H   0  0  0  0  0  0  0  0  0  0  0  0
    4.9330    4.0750   -6.7090 H   0  0  0  0  0  0  0  0  0  0  0  0
    4.7900    5.1880   -4.8740 C   0  0  0  0  0  0  0  0  0  0  0  0
    5.0100    6.2120   -4.5710 H   0  0  0  0  0  0  0  0  0  0  0  0
    3.3110    4.7880   -4.5700 C   0  0  0  0  0  0  0  0  0  0  0  0
    2.6380    5.4790   -5.0770 H   0  0  0  0  0  0  0  0  0  0  0  0
    3.1300    3.7740   -4.9260 H   0  0  0  0  0  0  0  0  0  0  0  0
    3.1370    4.8330   -3.4950 H   0  0  0  0  0  0  0  0  0  0  0  0
    5.7270    4.2640   -4.0560 C   0  0  0  0  0  0  0  0  0  0  0  0
    5.5710    3.2290   -4.3610 H   0  0  0  0  0  0  0  0  0  0  0  0
    6.7640    4.5460   -4.2400 H   0  0  0  0  0  0  0  0  0  0  0  0
    5.5030    4.3690   -2.9940 H   0  0  0  0  0  0  0  0  0  0  0  0
    5.3050    3.2970  -10.3550 N   0  0  0  0  0  2  0  0  0  0  0  0
    5.3190    3.2100   -9.3190 H   0  0  0  0  0  0  0  0  0  0  0  0
    4.1120    2.9140  -11.0930 C   0  0  2  0  0  0  0  0  0  0  0  0
    4.3770    2.2010  -11.8730 H   0  0  0  0  0  0  0  0  0  0  0  0
    3.5250    4.1710  -11.7290 C   0  0  0  0  0  0  0  0  0  0  0  0
    2.8290    4.0740  -12.7370 O   0  0  0  0  0  0  0  0  0  0  0  0
    3.0890    2.1810  -10.2000 C   0  0  0  0  0  0  0  0  0  0  0  0
    2.2390    1.8870  -10.8160 H   0  0  0  0  0  0  0  0  0  0  0  0
    3.5630    1.2900   -9.7890 H   0  0  0  0  0  0  0  0  0  0  0  0
    2.5850    3.0260   -9.0590 C   0  0  0  0  0  0  0  0  0  0  0  0
    3.2850    2.9380   -8.2280 H   0  0  0  0  0  0  0  0  0  0  0  0
    2.5440    4.0640   -9.3890 H   0  0  0  0  0  0  0  0  0  0  0  0
    1.2080    2.6210   -8.5730 C   0  0  0  0  0  0  0  0  0  0  0  0
    0.7530    3.4710   -8.0650 H   0  0  0  0  0  0  0  0  0  0  0  0
    0.6000    2.3470   -9.4350 H   0  0  0  0  0  0  0  0  0  0  0  0
    1.2480    1.4500   -7.6160 C   0  0  0  0  0  0  0  0  0  0  0  0
    2.1300    1.5540   -6.9850 H   0  0  0  0  0  0  0  0  0  0  0  0
    1.3270    0.5330   -8.2000 H   0  0  0  0  0  0  0  0  0  0  0  0
    0.0220    1.3380   -6.7120 N   0  0  0  0  0  4  0  0  0  0  0  0
   -0.0630    2.2000   -6.1370 H   0  0  0  0  0  0  0  0  0  0  0  0
   -0.8300    1.2250   -7.2980 H   0  0  0  0  0  0  0  0  0  0  0  0
    0.1270    0.5130   -6.0880 H   0  0  0  0  0  0  0  0  0  0  0  0
    3.8150    5.3320  -11.1570 N   0  0  0  0  0  0  0  0  0  0  0  0
    4.3440    5.3460  -10.2620 H   0  0  0  0  0  0  0  0  0  0  0  0
    3.4060    6.5700  -11.7600 C   0  0  2  0  0  0  0  0  0  0  0  0
    2.6010    6.3500  -12.4610 H   0  0  0  0  0  0  0  0  0  0  0  0
    4.5830    7.2000  -12.5340 C   0  0  0  0  0  3  0  0  0  0  0  0
    4.3900    7.6850  -13.6440 O   0  0  0  0  0  0  0  0  0  0  0  0
    2.8330    7.5740  -10.6990 C   0  0  0  0  0  0  0  0  0  0  0  0
    1.7520    7.4410  -10.6510 H   0  0  0  0  0  0  0  0  0  0  0  0
    3.2710    7.3350   -9.7300 H   0  0  0  0  0  0  0  0  0  0  0  0
    3.1220    9.0400  -11.0060 C   0  0  0  0  0  0  0  0  0  0  0  0
    2.4190    9.6990  -11.9770 C   0  0  0  0  0  0  0  0  0  0  0  0
    1.6340    9.1740  -12.5200 H   0  0  0  0  0  0  0  0  0  0  0  0
    4.1580    9.7400  -10.3510 C   0  0  0  0  0  0  0  0  0  0  0  0
    4.7460    9.2230   -9.5930 H   0  0  0  0  0  0  0  0  0  0  0  0
    2.7000   11.0760  -12.2930 C   0  0  0  0  0  0  0  0  0  0  0  0
    2.1060   11.5870  -13.0510 H   0  0  0  0  0  0  0  0  0  0  0  0
    4.4620   11.1120  -10.6520 C   0  0  0  0  0  0  0  0  0  0  0  0
    5.2550   11.6380  -10.1200 H   0  0  0  0  0  0  0  0  0  0  0  0
    3.7150   11.7570  -11.6450 C   0  0  0  0  0  0  0  0  0  0  0  0
    3.9630   13.0750  -12.0290 O   0  0  0  0  0  0  0  0  0  0  0  0
    3.3260   13.3360  -12.7410 H   0  0  0  0  0  0  0  0  0  0  0  0
   10.9780    6.3050   -4.9480 N   0  0  0  0  0  2  0  0  0  0  0  0
   10.1880    5.9880   -5.5450 H   0  0  0  0  0  0  0  0  0  0  0  0
   10.7200    6.5580   -3.5270 C   0  0  2  0  0  0  0  0  0  0  0  0
   10.9690    7.6020   -3.3390 H   0  0  0  0  0  0  0  0  0  0  0  0
   11.6250    5.7190   -2.6400 C   0  0  0  0  0  3  0  0  0  0  0  0
   12.2670    6.2920   -1.7970 O   0  0  0  0  0  0  0  0  0  0  0  0
    9.2040    6.4100   -3.1540 C   0  0  0  0  0  0  0  0  0  0  0  0
    8.6640    7.2090   -3.6620 H   0  0  0  0  0  0  0  0  0  0  0  0
    8.8680    5.4460   -3.5360 H   0  0  0  0  0  0  0  0  0  0  0  0
    8.8060    6.4750   -1.6050 C   0  0  0  0  0  0  0  0  0  0  0  0
    9.0730    5.5270   -1.1380 H   0  0  0  0  0  0  0  0  0  0  0  0
    9.3690    7.2810   -1.1350 H   0  0  0  0  0  0  0  0  0  0  0  0
    7.2710    6.7340   -1.3710 C   0  0  0  0  0  0  0  0  0  0  0  0
    6.9860    6.4380   -0.3620 H   0  0  0  0  0  0  0  0  0  0  0  0
    6.6770    6.1740   -2.0940 H   0  0  0  0  0  0  0  0  0  0  0  0
    7.0740    8.1750   -1.5550 N   0  0  0  0  0  0  0  0  0  0  0  0
    7.9010    8.7810   -1.3810 H   0  0  0  0  0  0  0  0  0  0  0  0
    5.9530    8.7950   -1.9200 C   0  0  0  0  0  0  0  0  0  0  0  0
    4.8300    8.1290   -2.1550 N   0  0  0  0  0  4  0  0  0  0  0  0
    4.8090    7.0940   -2.0560 H   0  0  0  0  0  0  0  0  0  0  0  0
    3.9710    8.6420   -2.4390 H   0  0  0  0  0  0  0  0  0  0  0  0
    5.9750   10.1110   -2.0680 N   0  0  0  0  0  0  0  0  0  0  0  0
    6.8550   10.6390   -1.9000 H   0  0  0  0  0  0  0  0  0  0  0  0
    5.1120   10.6170   -2.3520 H   0  0  0  0  0  0  0  0  0  0  0  0
   11.6800   13.6970    2.1500 N   0  0  0  0  0  2  0  0  0  0  0  0
   11.0060   14.3750    1.7400 H   0  0  0  0  0  0  0  0  0  0  0  0
   12.3750   12.7460    1.2760 C   0  0  2  0  0  0  0  0  0  0  0  0
   12.5890   11.8420    1.8460 H   0  0  0  0  0  0  0  0  0  0  0  0
   13.6730   13.4000    0.7880 C   0  0  0  0  0  3  0  0  0  0  0  0
   13.6690   14.3550    0.0170 O   0  0  0  0  0  0  0  0  0  0  0  0
   11.5200   12.3200    0.0890 C   0  0  0  0  0  0  0  0  0  0  0  0
   11.3570   13.1990   -0.5350 H   0  0  0  0  0  0  0  0  0  0  0  0
   12.0810   11.5750   -0.4740 H   0  0  0  0  0  0  0  0  0  0  0  0
   10.1640   11.7270    0.4160 C   0  0  0  0  0  0  0  0  0  0  0  0
   10.0310   10.3500    0.7370 C   0  0  0  0  0  0  0  0  0  0  0  0
   10.9170    9.7150    0.7680 H   0  0  0  0  0  0  0  0  0  0  0  0
    9.0060   12.5450    0.3790 C   0  0  0  0  0  0  0  0  0  0  0  0
    9.1020   13.6000    0.1210 H   0  0  0  0  0  0  0  0  0  0  0  0
    8.7740    9.8000    1.0140 C   0  0  0  0  0  0  0  0  0  0  0  0
    8.6750    8.7420    1.2580 H   0  0  0  0  0  0  0  0  0  0  0  0
    7.7410   12.0170    0.6690 C   0  0  0  0  0  0  0  0  0  0  0  0
    6.8570   12.6550    0.6610 H   0  0  0  0  0  0  0  0  0  0  0  0
    7.6340   10.6360    0.9730 C   0  0  0  0  0  0  0  0  0  0  0  0
    6.3730   10.1120    1.2340 O   0  0  0  0  0  0  0  0  0  0  0  0
    6.4530    9.1450    1.4290 H   0  0  0  0  0  0  0  0  0  0  0  0
    6.8140   13.4770   -8.2220 H   0  0  0  0  0  0  0  0  0  0  0  0
   -8.7350    4.5970   -6.3320 H   0  0  0  0  0  0  0  0  0  0  0  0
  1  2  1  0
  1  3  1  0
  3  4  1  6
  3  5  1  0
  3  7  1  0
  5  6  2  0
  7  8  1  0
  7  9  1  0
  7 10  1  0
 10 11  2  0
 10 12  1  0
 12250  1  0
 13 14  1  0
 13 15  1  0
 15 16  1  6
 15 17  1  0
 15 19  1  0
 17 18  2  0
 17 24  1  0
 19 20  1  0
 19 21  1  0
 19 22  1  0
 22 23  1  0
 24 25  1  0
 24 26  1  0
 26 27  1  1
 26 28  1  0
 26 30  1  0
 28 29  2  0
 28 35  1  0
 30 31  1  0
 30 32  1  0
 30 33  1  0
 33 34  1  0
 35 36  1  0
 35 37  1  0
 37 38  1  6
 37 39  1  0
 37 41  1  0
 39 40  2  0
 41 42  1  0
 41 43  1  0
 41 44  1  0
 44 45  2  0
 44 47  1  0
 45 46  1  0
 45 49  1  0
 47 48  1  0
 47 51  2  0
 49 50  1  0
 49 53  2  0
 51 52  1  0
 51 53  1  0
 53 54  1  0
 55 56  1  0
 55 57  1  0
 57 58  1  6
 57 59  1  0
 57 61  1  0
 59 60  2  0
 61 62  1  0
 61 63  1  0
 61 67  1  0
 63 64  1  0
 63 65  1  0
 63 66  1  0
 67 68  1  0
 67 69  1  0
 67 70  1  0
 71 72  1  0
 71 73  1  0
 73 74  1  1
 73 75  1  0
 73 77  1  0
 75 76  2  0
 77 78  1  6
 77 79  1  0
 77 82  1  0
 79 80  1  0
 79 81  1  0
 79 86  1  0
 82 83  1  0
 82 84  1  0
 82 85  1  0
 86 87  1  0
 86 88  1  0
 86 89  1  0
 90 91  1  0
 90 92  1  0
 92 93  1  6
 92 94  1  0
 92 96  1  0
 94 95  2  0
 96 97  1  0
 96 98  1  0
 96 99  1  0
 99100  1  0
 99101  2  0
100103  2  0
101102  1  0
101105  1  0
103104  1  0
103105  1  0
105251  1  0
106107  1  0
106108  1  0
108109  1  1
108110  1  0
108112  1  0
110111  2  0
112113  1  0
112114  1  0
112118  1  0
114115  1  0
114116  1  0
114117  1  0
118119  1  0
118120  1  0
118121  1  0
122123  1  0
122124  1  0
124125  1  1
124126  1  0
124128  1  0
126127  2  0
126132  1  0
128129  1  0
128130  1  0
128131  1  0
132133  1  0
132134  1  0
134135  1  1
134136  1  0
134138  1  0
136137  2  0
136143  1  0
138139  1  0
138140  1  0
138141  1  0
141142  1  0
143144  1  0
143145  1  0
145146  1  1
145147  1  0
145149  1  0
147148  2  0
149150  1  0
149151  1  0
149152  1  0
152153  1  0
152154  1  0
152158  1  0
154155  1  0
154156  1  0
154157  1  0
158159  1  0
158160  1  0
158161  1  0
162163  1  0
162164  1  0
164165  1  6
164166  1  0
164168  1  0
166167  2  0
166184  1  0
168169  1  0
168170  1  0
168171  1  0
171172  1  0
171173  1  0
171174  1  0
174175  1  0
174176  1  0
174177  1  0
177178  1  0
177179  1  0
177180  1  0
180181  1  0
180182  1  0
180183  1  0
184185  1  0
184186  1  0
186187  1  6
186188  1  0
186190  1  0
188189  2  0
190191  1  0
190192  1  0
190193  1  0
193194  2  0
193196  1  0
194195  1  0
194198  1  0
196197  1  0
196200  2  0
198199  1  0
198202  2  0
200201  1  0
200202  1  0
202203  1  0
203204  1  0
205206  1  0
205207  1  0
207208  1  6
207209  1  0
207211  1  0
209210  2  0
211212  1  0
211213  1  0
211214  1  0
214215  1  0
214216  1  0
214217  1  0
217218  1  0
217219  1  0
217220  1  0
220221  1  0
220222  1  0
222223  2  0
222226  1  0
223224  1  0
223225  1  0
226227  1  0
226228  1  0
229230  1  0
229231  1  0
231232  1  1
231233  1  0
231235  1  0
233234  2  0
235236  1  0
235237  1  0
235238  1  0
238239  2  0
238241  1  0
239240  1  0
239243  1  0
241242  1  0
241245  2  0
243244  1  0
243247  2  0
245246  1  0
245247  1  0
247248  1  0
248249  1  0
M  RAD  8   1   2   5   2  13   2  39   2  55   2  59   2  71   2  75   2
M  RAD  8  90   2  94   2 106   2 110   2 122   2 147   2 162   2 188   2
M  CHG  2 180   1 223   1
M  RAD  4 205   2 209   2 229   2 233   2
M  END
$$$$

     RDKit          3D

251245  0  0  0  0  0  0  0  0999 V2000
    8.2390   15.7430  -10.2460 N   0  0  0  0  0  2  0  0  0  0  0  0
    8.4060   14.8450   -9.7480 H   0  0  0  0  0  0  0  0  0  0  0  0
    7.1270   16.5820   -9.8330 C   0  0  2  0  0  0  0  0  0  0  0  0
    6.5240   16.7530  -10.7240 H   0  0  0  0  0  0  0  0  0  0  0  0
    7.5010   17.9630   -9.3590 C   0  0  0  0  0  3  0  0  0  0  0  0
    8.3130   18.1090   -8.4540 O   0  0  0  0  0  0  0  0  0  0  0  0
    6.3630   15.8620   -8.7680 C   0  0  0  0  0  0  0  0  0  0  0  0
    7.0440   15.5910   -7.9610 H   0  0  0  0  0  0  0  0  0  0  0  0
    5.5850   16.5200   -8.3800 H   0  0  0  0  0  0  0  0  0  0  0  0
    5.7360   14.6350   -9.3040 C   0  0  0  0  0  0  0  0  0  0  0  0
    4.8520   14.7920  -10.1880 O   0  0  0  0  0  0  0  0  0  0  0  0
    6.1520   13.5130   -8.8840 O   0  0  0  0  0  0  0  0  0  0  0  0
    1.6580   16.8130  -11.9920 N   0  0  0  0  0  2  0  0  0  0  0  0
    2.3630   16.6600  -11.2430 H   0  0  0  0  0  0  0  0  0  0  0  0
    0.5750   15.8710  -12.1280 C   0  0  2  0  0  0  0  0  0  0  0  0
    0.1290   15.9910  -13.1150 H   0  0  0  0  0  0  0  0  0  0  0  0
   -0.5220   16.1130  -11.1130 C   0  0  0  0  0  0  0  0  0  0  0  0
   -0.2990   16.7340  -10.0760 O   0  0  0  0  0  0  0  0  0  0  0  0
    1.1300   14.4960  -11.9520 C   0  0  0  0  0  0  0  0  0  0  0  0
    0.3140   13.7740  -11.9180 H   0  0  0  0  0  0  0  0  0  0  0  0
    1.6970   14.4460  -11.0220 H   0  0  0  0  0  0  0  0  0  0  0  0
    1.9940   14.1960  -13.0610 O   0  0  0  0  0  0  0  0  0  0  0  0
    2.3660   13.2850  -12.9510 H   0  0  0  0  0  0  0  0  0  0  0  0
   -1.7070   15.5990  -11.3820 N   0  0  0  0  0  0  0  0  0  0  0  0
   -1.8300   15.0390  -12.2500 H   0  0  0  0  0  0  0  0  0  0  0  0
   -2.8500   15.7940  -10.4960 C   0  0  2  0  0  0  0  0  0  0  0  0
   -2.4940   15.6940   -9.4710 H   0  0  0  0  0  0  0  0  0  0  0  0
   -3.9360   14.7420  -10.7100 C   0  0  0  0  0  0  0  0  0  0  0  0
   -4.1170   14.2150  -11.8220 O   0  0  0  0  0  0  0  0  0  0  0  0
   -3.4310   17.1680  -10.7260 C   0  0  0  0  0  0  0  0  0  0  0  0
   -3.6970   17.2780  -11.7770 H   0  0  0  0  0  0  0  0  0  0  0  0
   -2.6920   17.9230  -10.4590 H   0  0  0  0  0  0  0  0  0  0  0  0
   -4.5930   17.3400   -9.9250 O   0  0  0  0  0  0  0  0  0  0  0  0
   -4.9690   18.2430  -10.0800 H   0  0  0  0  0  0  0  0  0  0  0  0
   -4.6520   14.4140   -9.6350 N   0  0  0  0  0  0  0  0  0  0  0  0
   -4.3590   14.7920   -8.7110 H   0  0  0  0  0  0  0  0  0  0  0  0
   -5.8320   13.5460   -9.6910 C   0  0  2  0  0  0  0  0  0  0  0  0
   -5.6450   12.7780  -10.4420 H   0  0  0  0  0  0  0  0  0  0  0  0
   -7.0770   14.3290  -10.1220 C   0  0  0  0  0  3  0  0  0  0  0  0
   -8.0250   13.7390  -10.5890 O   0  0  0  0  0  0  0  0  0  0  0  0
   -6.0610   12.8570   -8.3570 C   0  0  0  0  0  0  0  0  0  0  0  0
   -5.9730   13.6020   -7.5670 H   0  0  0  0  0  0  0  0  0  0  0  0
   -7.0700   12.4440   -8.3540 H   0  0  0  0  0  0  0  0  0  0  0  0
   -5.0730   11.7210   -8.0610 C   0  0  0  0  0  0  0  0  0  0  0  0
   -4.0720   11.8810   -7.1020 C   0  0  0  0  0  0  0  0  0  0  0  0
   -3.9860   12.8270   -6.5670 H   0  0  0  0  0  0  0  0  0  0  0  0
   -5.1740   10.4980   -8.7080 C   0  0  0  0  0  0  0  0  0  0  0  0
   -5.9560   10.3530   -9.4530 H   0  0  0  0  0  0  0  0  0  0  0  0
   -3.1820   10.8480   -6.8190 C   0  0  0  0  0  0  0  0  0  0  0  0
   -2.4060   10.9870   -6.0660 H   0  0  0  0  0  0  0  0  0  0  0  0
   -4.2920    9.4420   -8.4250 C   0  0  0  0  0  0  0  0  0  0  0  0
   -4.4060    8.4830   -8.9310 H   0  0  0  0  0  0  0  0  0  0  0  0
   -3.2860    9.6220   -7.5080 C   0  0  0  0  0  0  0  0  0  0  0  0
   -2.5720    8.8220   -7.3140 H   0  0  0  0  0  0  0  0  0  0  0  0
   -3.3140    5.0230  -13.0570 N   0  0  0  0  0  2  0  0  0  0  0  0
   -4.1400    5.6150  -12.8370 H   0  0  0  0  0  0  0  0  0  0  0  0
   -2.5170    4.4610  -11.9940 C   0  0  2  0  0  0  0  0  0  0  0  0
   -1.7250    3.8470  -12.4230 H   0  0  0  0  0  0  0  0  0  0  0  0
   -3.4380    3.6400  -11.1070 C   0  0  0  0  0  3  0  0  0  0  0  0
   -4.4710    4.1900  -10.6370 O   0  0  0  0  0  0  0  0  0  0  0  0
   -1.8540    5.5840  -11.1350 C   0  0  0  0  0  0  0  0  0  0  0  0
   -2.6490    6.2450  -10.7900 H   0  0  0  0  0  0  0  0  0  0  0  0
   -1.1450    4.9970   -9.9330 C   0  0  0  0  0  0  0  0  0  0  0  0
   -1.8650    4.4610   -9.3150 H   0  0  0  0  0  0  0  0  0  0  0  0
   -0.3700    4.3090  -10.2700 H   0  0  0  0  0  0  0  0  0  0  0  0
   -0.6920    5.8000   -9.3520 H   0  0  0  0  0  0  0  0  0  0  0  0
   -0.8790    6.3820  -11.9530 C   0  0  0  0  0  0  0  0  0  0  0  0
   -0.0980    5.7220  -12.3300 H   0  0  0  0  0  0  0  0  0  0  0  0
   -1.4020    6.8440  -12.7900 H   0  0  0  0  0  0  0  0  0  0  0  0
   -0.4320    7.1570  -11.3300 H   0  0  0  0  0  0  0  0  0  0  0  0
   -4.5210    2.0210   -7.7850 N   0  0  0  0  0  2  0  0  0  0  0  0
   -5.4600    2.1270   -8.2190 H   0  0  0  0  0  0  0  0  0  0  0  0
   -4.3760    2.2860   -6.3400 C   0  0  2  0  0  0  0  0  0  0  0  0
   -3.3700    1.9630   -6.0710 H   0  0  0  0  0  0  0  0  0  0  0  0
   -5.3740    1.4700   -5.5200 C   0  0  0  0  0  3  0  0  0  0  0  0
   -6.6090    1.7400   -5.5300 O   0  0  0  0  0  0  0  0  0  0  0  0
   -4.4620    3.8040   -5.9870 C   0  0  2  0  0  0  0  0  0  0  0  0
   -5.4400    4.1780   -6.2900 H   0  0  0  0  0  0  0  0  0  0  0  0
   -3.3750    4.5860   -6.7450 C   0  0  0  0  0  0  0  0  0  0  0  0
   -2.4260    4.4330   -6.2310 H   0  0  0  0  0  0  0  0  0  0  0  0
   -3.3090    4.1820   -7.7550 H   0  0  0  0  0  0  0  0  0  0  0  0
   -4.3050    4.0130   -4.4580 C   0  0  0  0  0  0  0  0  0  0  0  0
   -5.1000    3.4810   -3.9360 H   0  0  0  0  0  0  0  0  0  0  0  0
   -3.3370    3.6280   -4.1370 H   0  0  0  0  0  0  0  0  0  0  0  0
   -4.3670    5.0770   -4.2300 H   0  0  0  0  0  0  0  0  0  0  0  0
   -3.6210    6.0930   -6.8510 C   0  0  0  0  0  0  0  0  0  0  0  0
   -4.5590    6.2710   -7.3760 H   0  0  0  0  0  0  0  0  0  0  0  0
   -3.6760    6.5220   -5.8510 H   0  0  0  0  0  0  0  0  0  0  0  0
   -2.8020    6.5560   -7.4010 H   0  0  0  0  0  0  0  0  0  0  0  0
   -7.1030    4.9550  -11.2140 N   0  0  0  0  0  2  0  0  0  0  0  0
   -6.1220    4.6450  -11.0650 H   0  0  0  0  0  0  0  0  0  0  0  0
   -7.3690    6.3930  -11.2260 C   0  0  2  0  0  0  0  0  0  0  0  0
   -8.4260    6.5500  -11.4390 H   0  0  0  0  0  0  0  0  0  0  0  0
   -6.5510    7.1110  -12.3230 C   0  0  0  0  0  3  0  0  0  0  0  0
   -5.3670    6.8340  -12.4820 O   0  0  0  0  0  0  0  0  0  0  0  0
   -6.9990    6.9690   -9.8590 C   0  0  0  0  0  0  0  0  0  0  0  0
   -5.9460    6.7590   -9.6690 H   0  0  0  0  0  0  0  0  0  0  0  0
   -7.1550    8.0480   -9.8840 H   0  0  0  0  0  0  0  0  0  0  0  0
   -7.8100    6.3970   -8.7320 C   0  0  0  0  0  0  0  0  0  0  0  0
   -9.1120    6.7880   -8.4820 N   0  0  0  0  0  0  0  0  0  0  0  0
   -7.5200    5.4300   -7.8250 C   0  0  0  0  0  0  0  0  0  0  0  0
   -6.5730    4.9000   -7.7210 H   0  0  0  0  0  0  0  0  0  0  0  0
   -9.5840    6.0790   -7.4730 C   0  0  0  0  0  0  0  0  0  0  0  0
  -10.5840    6.1660   -7.0470 H   0  0  0  0  0  0  0  0  0  0  0  0
   -8.6430    5.2470   -7.0660 N   0  0  0  0  0  0  0  0  0  0  0  0
   -4.3430    9.9870  -13.8600 N   0  0  0  0  0  2  0  0  0  0  0  0
   -3.9430    9.2670  -14.4950 H   0  0  0  0  0  0  0  0  0  0  0  0
   -3.4660   11.0950  -13.4060 C   0  0  2  0  0  0  0  0  0  0  0  0
   -3.9980   11.6020  -12.6010 H   0  0  0  0  0  0  0  0  0  0  0  0
   -3.1980   12.0700  -14.5610 C   0  0  0  0  0  3  0  0  0  0  0  0
   -2.6940   11.6660  -15.6100 O   0  0  0  0  0  0  0  0  0  0  0  0
   -2.1230   10.5980  -12.8370 C   0  0  0  0  0  0  0  0  0  0  0  0
   -1.6160   10.0380  -13.6230 H   0  0  0  0  0  0  0  0  0  0  0  0
   -1.2160   11.7770  -12.4230 C   0  0  0  0  0  0  0  0  0  0  0  0
   -1.0140   12.4010  -13.2930 H   0  0  0  0  0  0  0  0  0  0  0  0
   -1.7190   12.3690  -11.6580 H   0  0  0  0  0  0  0  0  0  0  0  0
   -0.2780   11.3900  -12.0260 H   0  0  0  0  0  0  0  0  0  0  0  0
   -2.3600    9.6900  -11.6480 C   0  0  0  0  0  0  0  0  0  0  0  0
   -2.8940   10.2400  -10.8730 H   0  0  0  0  0  0  0  0  0  0  0  0
   -2.9540    8.8310  -11.9610 H   0  0  0  0  0  0  0  0  0  0  0  0
   -1.4020    9.3470  -11.2570 H   0  0  0  0  0  0  0  0  0  0  0  0
   10.6540   11.3050   -5.5760 N   0  0  0  0  0  2  0  0  0  0  0  0
   10.3920   12.2850   -5.8030 H   0  0  0  0  0  0  0  0  0  0  0  0
   10.0940   10.6720   -4.3490 C   0  0  2  0  0  0  0  0  0  0  0  0
   10.8680    9.9920   -3.9930 H   0  0  0  0  0  0  0  0  0  0  0  0
    8.8430    9.8410   -4.6350 C   0  0  0  0  0  0  0  0  0  0  0  0
    8.3760    9.1070   -3.7350 O   0  0  0  0  0  0  0  0  0  0  0  0
    9.8210   11.6790   -3.2540 C   0  0  0  0  0  0  0  0  0  0  0  0
   10.7510   12.1790   -2.9810 H   0  0  0  0  0  0  0  0  0  0  0  0
    9.1020   12.4160   -3.6110 H   0  0  0  0  0  0  0  0  0  0  0  0
    9.4140   11.1650   -2.3830 H   0  0  0  0  0  0  0  0  0  0  0  0
    8.3280    9.9240   -5.8760 N   0  0  0  0  0  0  0  0  0  0  0  0
    8.8050   10.5390   -6.5650 H   0  0  0  0  0  0  0  0  0  0  0  0
    7.1420    9.2010   -6.3060 C   0  0  2  0  0  0  0  0  0  0  0  0
    6.4000    9.3360   -5.5190 H   0  0  0  0  0  0  0  0  0  0  0  0
    7.4250    7.7530   -6.4980 C   0  0  0  0  0  0  0  0  0  0  0  0
    8.5700    7.2700   -6.4620 O   0  0  0  0  0  0  0  0  0  0  0  0
    6.6180    9.7450   -7.6390 C   0  0  0  0  0  0  0  0  0  0  0  0
    5.6190    9.3460   -7.8150 H   0  0  0  0  0  0  0  0  0  0  0  0
    7.2840    9.4210   -8.4390 H   0  0  0  0  0  0  0  0  0  0  0  0
    6.5530   11.1910   -7.6390 O   0  0  0  0  0  0  0  0  0  0  0  0
    6.2110   11.5050   -8.5140 H   0  0  0  0  0  0  0  0  0  0  0  0
    6.3550    7.0580   -6.8100 N   0  0  0  0  0  0  0  0  0  0  0  0
    5.4610    7.5640   -6.9720 H   0  0  0  0  0  0  0  0  0  0  0  0
    6.3700    5.6400   -6.9350 C   0  0  2  0  0  0  0  0  0  0  0  0
    7.1620    5.1570   -6.3640 H   0  0  0  0  0  0  0  0  0  0  0  0
    6.5790    5.3360   -8.4090 C   0  0  0  0  0  3  0  0  0  0  0  0
    6.0940    6.0730   -9.2600 O   0  0  0  0  0  0  0  0  0  0  0  0
    5.0220    5.1190   -6.4090 C   0  0  0  0  0  0  0  0  0  0  0  0
    4.2350    5.7010   -6.8870 H   0  0  0  0  0  0  0  0  0  0  0  0
    4.9330    4.0750   -6.7090 H   0  0  0  0  0  0  0  0  0  0  0  0
    4.7900    5.1880   -4.8740 C   0  0  0  0  0  0  0  0  0  0  0  0
    5.0100    6.2120   -4.5710 H   0  0  0  0  0  0  0  0  0  0  0  0
    3.3110    4.7880   -4.5700 C   0  0  0  0  0  0  0  0  0  0  0  0
    2.6380    5.4790   -5.0770 H   0  0  0  0  0  0  0  0  0  0  0  0
    3.1300    3.7740   -4.9260 H   0  0  0  0  0  0  0  0  0  0  0  0
    3.1370    4.8330   -3.4950 H   0  0  0  0  0  0  0  0  0  0  0  0
    5.7270    4.2640   -4.0560 C   0  0  0  0  0  0  0  0  0  0  0  0
    5.5710    3.2290   -4.3610 H   0  0  0  0  0  0  0  0  0  0  0  0
    6.7640    4.5460   -4.2400 H   0  0  0  0  0  0  0  0  0  0  0  0
    5.5030    4.3690   -2.9940 H   0  0  0  0  0  0  0  0  0  0  0  0
    5.3050    3.2970  -10.3550 N   0  0  0  0  0  2  0  0  0  0  0  0
    5.3190    3.2100   -9.3190 H   0  0  0  0  0  0  0  0  0  0  0  0
    4.1120    2.9140  -11.0930 C   0  0  2  0  0  0  0  0  0  0  0  0
    4.3770    2.2010  -11.8730 H   0  0  0  0  0  0  0  0  0  0  0  0
    3.5250    4.1710  -11.7290 C   0  0  0  0  0  0  0  0  0  0  0  0
    2.8290    4.0740  -12.7370 O   0  0  0  0  0  0  0  0  0  0  0  0
    3.0890    2.1810  -10.2000 C   0  0  0  0  0  0  0  0  0  0  0  0
    2.2390    1.8870  -10.8160 H   0  0  0  0  0  0  0  0  0  0  0  0
    3.5630    1.2900   -9.7890 H   0  0  0  0  0  0  0  0  0  0  0  0
    2.5850    3.0260   -9.0590 C   0  0  0  0  0  0  0  0  0  0  0  0
    3.2850    2.9380   -8.2280 H   0  0  0  0  0  0  0  0  0  0  0  0
    2.5440    4.0640   -9.3890 H   0  0  0  0  0  0  0  0  0  0  0  0
    1.2080    2.6210   -8.5730 C   0  0  0  0  0  0  0  0  0  0  0  0
    0.7530    3.4710   -8.0650 H   0  0  0  0  0  0  0  0  0  0  0  0
    0.6000    2.3470   -9.4350 H   0  0  0  0  0  0  0  0  0  0  0  0
    1.2480    1.4500   -7.6160 C   0  0  0  0  0  0  0  0  0  0  0  0
    2.1300    1.5540   -6.9850 H   0  0  0  0  0  0  0  0  0  0  0  0
    1.3270    0.5330   -8.2000 H   0  0  0  0  0  0  0  0  0  0  0  0
    0.0220    1.3380   -6.7120 N   0  0  0  0  0  4  0  0  0  0  0  0
   -0.0630    2.2000   -6.1370 H   0  0  0  0  0  0  0  0  0  0  0  0
   -0.8300    1.2250   -7.2980 H   0  0  0  0  0  0  0  0  0  0  0  0
    0.1270    0.5130   -6.0880 H   0  0  0  0  0  0  0  0  0  0  0  0
    3.8150    5.3320  -11.1570 N   0  0  0  0  0  0  0  0  0  0  0  0
    4.3440    5.3460  -10.2620 H   0  0  0  0  0  0  0  0  0  0  0  0
    3.4060    6.5700  -11.7600 C   0  0  2  0  0  0  0  0  0  0  0  0
    2.6010    6.3500  -12.4610 H   0  0  0  0  0  0  0  0  0  0  0  0
    4.5830    7.2000  -12.5340 C   0  0  0  0  0  3  0  0  0  0  0  0
    4.3900    7.6850  -13.6440 O   0  0  0  0  0  0  0  0  0  0  0  0
    2.8330    7.5740  -10.6990 C   0  0  0  0  0  0  0  0  0  0  0  0
    1.7520    7.4410  -10.6510 H   0  0  0  0  0  0  0  0  0  0  0  0
    3.2710    7.3350   -9.7300 H   0  0  0  0  0  0  0  0  0  0  0  0
    3.1220    9.0400  -11.0060 C   0  0  0  0  0  0  0  0  0  0  0  0
    2.4190    9.6990  -11.9770 C   0  0  0  0  0  0  0  0  0  0  0  0
    1.6340    9.1740  -12.5200 H   0  0  0  0  0  0  0  0  0  0  0  0
    4.1580    9.7400  -10.3510 C   0  0  0  0  0  0  0  0  0  0  0  0
    4.7460    9.2230   -9.5930 H   0  0  0  0  0  0  0  0  0  0  0  0
    2.7000   11.0760  -12.2930 C   0  0  0  0  0  0  0  0  0  0  0  0
    2.1060   11.5870  -13.0510 H   0  0  0  0  0  0  0  0  0  0  0  0
    4.4620   11.1120  -10.6520 C   0  0  0  0  0  0  0  0  0  0  0  0
    5.2550   11.6380  -10.1200 H   0  0  0  0  0  0  0  0  0  0  0  0
    3.7150   11.7570  -11.6450 C   0  0  0  0  0  0  0  0  0  0  0  0
    3.9630   13.0750  -12.0290 O   0  0  0  0  0  0  0  0  0  0  0  0
    3.3260   13.3360  -12.7410 H   0  0  0  0  0  0  0  0  0  0  0  0
   10.9780    6.3050   -4.9480 N   0  0  0  0  0  2  0  0  0  0  0  0
   10.1880    5.9880   -5.5450 H   0  0  0  0  0  0  0  0  0  0  0  0
   10.7200    6.5580   -3.5270 C   0  0  2  0  0  0  0  0  0  0  0  0
   10.9690    7.6020   -3.3390 H   0  0  0  0  0  0  0  0  0  0  0  0
   11.6250    5.7190   -2.6400 C   0  0  0  0  0  3  0  0  0  0  0  0
   12.2670    6.2920   -1.7970 O   0  0  0  0  0  0  0  0  0  0  0  0
    9.2040    6.4100   -3.1540 C   0  0  0  0  0  0  0  0  0  0  0  0
    8.6640    7.2090   -3.6620 H   0  0  0  0  0  0  0  0  0  0  0  0
    8.8680    5.4460   -3.5360 H   0  0  0  0  0  0  0  0  0  0  0  0
    8.8060    6.4750   -1.6050 C   0  0  0  0  0  0  0  0  0  0  0  0
    9.0730    5.5270   -1.1380 H   0  0  0  0  0  0  0  0  0  0  0  0
    9.3690    7.2810   -1.1350 H   0  0  0  0  0  0  0  0  0  0  0  0
    7.2710    6.7340   -1.3710 C   0  0  0  0  0  0  0  0  0  0  0  0
    6.9860    6.4380   -0.3620 H   0  0  0  0  0  0  0  0  0  0  0  0
    6.6770    6.1740   -2.0940 H   0  0  0  0  0  0  0  0  0  0  0  0
    7.0740    8.1750   -1.5550 N   0  0  0  0  0  0  0  0  0  0  0  0
    7.9010    8.7810   -1.3810 H   0  0  0  0  0  0  0  0  0  0  0  0
    5.9530    8.7950   -1.9200 C   0  0  0  0  0  0  0  0  0  0  0  0
    4.8300    8.1290   -2.1550 N   0  0  0  0  0  4  0  0  0  0  0  0
    4.8090    7.0940   -2.0560 H   0  0  0  0  0  0  0  0  0  0  0  0
    3.9710    8.6420   -2.4390 H   0  0  0  0  0  0  0  0  0  0  0  0
    5.9750   10.1110   -2.0680 N   0  0  0  0  0  0  0  0  0  0  0  0
    6.8550   10.6390   -1.9000 H   0  0  0  0  0  0  0  0  0  0  0  0
    5.1120   10.6170   -2.3520 H   0  0  0  0  0  0  0  0  0  0  0  0
   11.6800   13.6970    2.1500 N   0  0  0  0  0  2  0  0  0  0  0  0
   11.0060   14.3750    1.7400 H   0  0  0  0  0  0  0  0  0  0  0  0
   12.3750   12.7460    1.2760 C   0  0  2  0  0  0  0  0  0  0  0  0
   12.5890   11.8420    1.8460 H   0  0  0  0  0  0  0  0  0  0  0  0
   13.6730   13.4000    0.7880 C   0  0  0  0  0  3  0  0  0  0  0  0
   13.6690   14.3550    0.0170 O   0  0  0  0  0  0  0  0  0  0  0  0
   11.5200   12.3200    0.0890 C   0  0  0  0  0  0  0  0  0  0  0  0
   11.3570   13.1990   -0.5350 H   0  0  0  0  0  0  0  0  0  0  0  0
   12.0810   11.5750   -0.4740 H   0  0  0  0  0  0  0  0  0  0  0  0
   10.1640   11.7270    0.4160 C   0  0  0  0  0  0  0  0  0  0  0  0
   10.0310   10.3500    0.7370 C   0  0  0  0  0  0  0  0  0  0  0  0
   10.9170    9.7150    0.7680 H   0  0  0  0  0  0  0  0  0  0  0  0
    9.0060   12.5450    0.3790 C   0  0  0  0  0  0  0  0  0  0  0  0
    9.1020   13.6000    0.1210 H   0  0  0  0  0  0  0  0  0  0  0  0
    8.7740    9.8000    1.0140 C   0  0  0  0  0  0  0  0  0  0  0  0
    8.6750    8.7420    1.2580 H   0  0  0  0  0  0  0  0  0  0  0  0
    7.7410   12.0170    0.6690 C   0  0  0  0  0  0  0  0  0  0  0  0
    6.8570   12.6550    0.6610 H   0  0  0  0  0  0  0  0  0  0  0  0
    7.6340   10.6360    0.9730 C   0  0  0  0  0  0  0  0  0  0  0  0
    6.3730   10.1120    1.2340 O   0  0  0  0  0  0  0  0  0  0  0  0
    6.4530    9.1450    1.4290 H   0  0  0  0  0  0  0  0  0  0  0  0
    6.8140   13.4770   -8.2220 H   0  0  0  0  0  0  0  0  0  0  0  0
   -8.7350    4.5970   -6.3320 H   0  0  0  0  0  0  0  0  0  0  0  0
  1  2  1  0
  1  3  1  0
  3  4  1  6
  3  5  1  0
  3  7  1  0
  5  6  2  0
  7  8  1  0
  7  9  1  0
  7 10  1  0
 10 11  2  0
 10 12  1  0
 12250  1  0
 13 14  1  0
 13 15  1  0
 15 16  1  6
 15 17  1  0
 15 19  1  0
 17 18  2  0
 17 24  1  0
 19 20  1  0
 19 21  1  0
 19 22  1  0
 22 23  1  0
 24 25  1  0
 24 26  1  0
 26 27  1  1
 26 28  1  0
 26 30  1  0
 28 29  2  0
 28 35  1  0
 30 31  1  0
 30 32  1  0
 30 33  1  0
 33 34  1  0
 35 36  1  0
 35 37  1  0
 37 38  1  6
 37 39  1  0
 37 41  1  0
 39 40  2  0
 41 42  1  0
 41 43  1  0
 41 44  1  0
 44 45  2  0
 44 47  1  0
 45 46  1  0
 45 49  1  0
 47 48  1  0
 47 51  2  0
 49 50  1  0
 49 53  2  0
 51 52  1  0
 51 53  1  0
 53 54  1  0
 55 56  1  0
 55 57  1  0
 57 58  1  6
 57 59  1  0
 57 61  1  0
 59 60  2  0
 61 62  1  0
 61 63  1  0
 61 67  1  0
 63 64  1  0
 63 65  1  0
 63 66  1  0
 67 68  1  0
 67 69  1  0
 67 70  1  0
 71 72  1  0
 71 73  1  0
 73 74  1  1
 73 75  1  0
 73 77  1  0
 75 76  2  0
 77 78  1  6
 77 79  1  0
 77 82  1  0
 79 80  1  0
 79 81  1  0
 79 86  1  0
 82 83  1  0
 82 84  1  0
 82 85  1  0
 86 87  1  0
 86 88  1  0
 86 89  1  0
 90 91  1  0
 90 92  1  0
 92 93  1  6
 92 94  1  0
 92 96  1  0
 94 95  2  0
 96 97  1  0
 96 98  1  0
 96 99  1  0
 99100  1  0
 99101  2  0
100103  2  0
101102  1  0
101105  1  0
103104  1  0
103105  1  0
105251  1  0
106107  1  0
106108  1  0
108109  1  1
108110  1  0
108112  1  0
110111  2  0
112113  1  0
112114  1  0
112118  1  0
114115  1  0
114116  1  0
114117  1  0
118119  1  0
118120  1  0
118121  1  0
122123  1  0
122124  1  0
124125  1  1
124126  1  0
124128  1  0
126127  2  0
126132  1  0
128129  1  0
128130  1  0
128131  1  0
132133  1  0
132134  1  0
134135  1  1
134136  1  0
134138  1  0
136137  2  0
136143  1  0
138139  1  0
138140  1  0
138141  1  0
141142  1  0
143144  1  0
143145  1  0
145146  1  1
145147  1  0
145149  1  0
147148  2  0
149150  1  0
149151  1  0
149152  1  0
152153  1  0
152154  1  0
152158  1  0
154155  1  0
154156  1  0
154157  1  0
158159  1  0
158160  1  0
158161  1  0
162163  1  0
162164  1  0
164165  1  6
164166  1  0
164168  1  0
166167  2  0
166184  1  0
168169  1  0
168170  1  0
168171  1  0
171172  1  0
171173  1  0
171174  1  0
174175  1  0
174176  1  0
174177  1  0
177178  1  0
177179  1  0
177180  1  0
180181  1  0
180182  1  0
180183  1  0
184185  1  0
184186  1  0
186187  1  6
186188  1  0
186190  1  0
188189  2  0
190191  1  0
190192  1  0
190193  1  0
193194  2  0
193196  1  0
194195  1  0
194198  1  0
196197  1  0
196200  2  0
198199  1  0
198202  2  0
200201  1  0
200202  1  0
202203  1  0
203204  1  0
205206  1  0
205207  1  0
207208  1  6
207209  1  0
207211  1  0
209210  2  0
211212  1  0
211213  1  0
211214  1  0
214215  1  0
214216  1  0
214217  1  0
217218  1  0
217219  1  0
217220  1  0
220221  1  0
220222  1  0
222223  2  0
222226  1  0
223224  1  0
223225  1  0
226227  1  0
226228  1  0
229230  1  0
229231  1  0
231232  1  1
231233  1  0
231235  1  0
233234  2  0
235236  1  0
235237  1  0
235238  1  0
238239  2  0
238241  1  0
239240  1  0
239243  1  0
241242  1  0
241245  2  0
243244  1  0
243247  2  0
245246  1  0
245247  1  0
247248  1  0
248249  1  0
M  RAD  8   1   2   5   2  13   2  39   2  55   2  59   2  71   2  75   2
M  RAD  8  90   2  94   2 106   2 110   2 122   2 147   2 162   2 188   2
M  CHG  2 180   1 223   1
M  RAD  4 205   2 209   2 229   2 233   2
M  END
$$$$

     RDKit          3D

251245  0  0  0  0  0  0  0  0999 V2000
    8.2390   15.7430  -10.2460 N   0  0  0  0  0  2  0  0  0  0  0  0
    8.4060   14.8450   -9.7480 H   0  0  0  0  0  0  0  0  0  0  0  0
    7.1270   16.5820   -9.8330 C   0  0  2  0  0  0  0  0  0  0  0  0
    6.5240   16.7530  -10.7240 H   0  0  0  0  0  0  0  0  0  0  0  0
    7.5010   17.9630   -9.3590 C   0  0  0  0  0  3  0  0  0  0  0  0
    8.3130   18.1090   -8.4540 O   0  0  0  0  0  0  0  0  0  0  0  0
    6.3630   15.8620   -8.7680 C   0  0  0  0  0  0  0  0  0  0  0  0
    7.0440   15.5910   -7.9610 H   0  0  0  0  0  0  0  0  0  0  0  0
    5.5850   16.5200   -8.3800 H   0  0  0  0  0  0  0  0  0  0  0  0
    5.7360   14.6350   -9.3040 C   0  0  0  0  0  0  0  0  0  0  0  0
    4.8520   14.7920  -10.1880 O   0  0  0  0  0  0  0  0  0  0  0  0
    6.1520   13.5130   -8.8840 O   0  0  0  0  0  0  0  0  0  0  0  0
    1.6580   16.8130  -11.9920 N   0  0  0  0  0  2  0  0  0  0  0  0
    2.3630   16.6600  -11.2430 H   0  0  0  0  0  0  0  0  0  0  0  0
    0.5750   15.8710  -12.1280 C   0  0  2  0  0  0  0  0  0  0  0  0
    0.1290   15.9910  -13.1150 H   0  0  0  0  0  0  0  0  0  0  0  0
   -0.5220   16.1130  -11.1130 C   0  0  0  0  0  0  0  0  0  0  0  0
   -0.2990   16.7340  -10.0760 O   0  0  0  0  0  0  0  0  0  0  0  0
    1.1300   14.4960  -11.9520 C   0  0  0  0  0  0  0  0  0  0  0  0
    0.3140   13.7740  -11.9180 H   0  0  0  0  0  0  0  0  0  0  0  0
    1.6970   14.4460  -11.0220 H   0  0  0  0  0  0  0  0  0  0  0  0
    1.9940   14.1960  -13.0610 O   0  0  0  0  0  0  0  0  0  0  0  0
    2.3660   13.2850  -12.9510 H   0  0  0  0  0  0  0  0  0  0  0  0
   -1.7070   15.5990  -11.3820 N   0  0  0  0  0  0  0  0  0  0  0  0
   -1.8300   15.0390  -12.2500 H   0  0  0  0  0  0  0  0  0  0  0  0
   -2.8500   15.7940  -10.4960 C   0  0  2  0  0  0  0  0  0  0  0  0
   -2.4940   15.6940   -9.4710 H   0  0  0  0  0  0  0  0  0  0  0  0
   -3.9360   14.7420  -10.7100 C   0  0  0  0  0  0  0  0  0  0  0  0
   -4.1170   14.2150  -11.8220 O   0  0  0  0  0  0  0  0  0  0  0  0
   -3.4310   17.1680  -10.7260 C   0  0  0  0  0  0  0  0  0  0  0  0
   -3.6970   17.2780  -11.7770 H   0  0  0  0  0  0  0  0  0  0  0  0
   -2.6920   17.9230  -10.4590 H   0  0  0  0  0  0  0  0  0  0  0  0
   -4.5930   17.3400   -9.9250 O   0  0  0  0  0  0  0  0  0  0  0  0
   -4.9690   18.2430  -10.0800 H   0  0  0  0  0  0  0  0  0  0  0  0
   -4.6520   14.4140   -9.6350 N   0  0  0  0  0  0  0  0  0  0  0  0
   -4.3590   14.7920   -8.7110 H   0  0  0  0  0  0  0  0  0  0  0  0
   -5.8320   13.5460   -9.6910 C   0  0  2  0  0  0  0  0  0  0  0  0
   -5.6450   12.7780  -10.4420 H   0  0  0  0  0  0  0  0  0  0  0  0
   -7.0770   14.3290  -10.1220 C   0  0  0  0  0  3  0  0  0  0  0  0
   -8.0250   13.7390  -10.5890 O   0  0  0  0  0  0  0  0  0  0  0  0
   -6.0610   12.8570   -8.3570 C   0  0  0  0  0  0  0  0  0  0  0  0
   -5.9730   13.6020   -7.5670 H   0  0  0  0  0  0  0  0  0  0  0  0
   -7.0700   12.4440   -8.3540 H   0  0  0  0  0  0  0  0  0  0  0  0
   -5.0730   11.7210   -8.0610 C   0  0  0  0  0  0  0  0  0  0  0  0
   -4.0720   11.8810   -7.1020 C   0  0  0  0  0  0  0  0  0  0  0  0
   -3.9860   12.8270   -6.5670 H   0  0  0  0  0  0  0  0  0  0  0  0
   -5.1740   10.4980   -8.7080 C   0  0  0  0  0  0  0  0  0  0  0  0
   -5.9560   10.3530   -9.4530 H   0  0  0  0  0  0  0  0  0  0  0  0
   -3.1820   10.8480   -6.8190 C   0  0  0  0  0  0  0  0  0  0  0  0
   -2.4060   10.9870   -6.0660 H   0  0  0  0  0  0  0  0  0  0  0  0
   -4.2920    9.4420   -8.4250 C   0  0  0  0  0  0  0  0  0  0  0  0
   -4.4060    8.4830   -8.9310 H   0  0  0  0  0  0  0  0  0  0  0  0
   -3.2860    9.6220   -7.5080 C   0  0  0  0  0  0  0  0  0  0  0  0
   -2.5720    8.8220   -7.3140 H   0  0  0  0  0  0  0  0  0  0  0  0
   -3.3140    5.0230  -13.0570 N   0  0  0  0  0  2  0  0  0  0  0  0
   -4.1400    5.6150  -12.8370 H   0  0  0  0  0  0  0  0  0  0  0  0
   -2.5170    4.4610  -11.9940 C   0  0  2  0  0  0  0  0  0  0  0  0
   -1.7250    3.8470  -12.4230 H   0  0  0  0  0  0  0  0  0  0  0  0
   -3.4380    3.6400  -11.1070 C   0  0  0  0  0  3  0  0  0  0  0  0
   -4.4710    4.1900  -10.6370 O   0  0  0  0  0  0  0  0  0  0  0  0
   -1.8540    5.5840  -11.1350 C   0  0  0  0  0  0  0  0  0  0  0  0
   -2.6490    6.2450  -10.7900 H   0  0  0  0  0  0  0  0  0  0  0  0
   -1.1450    4.9970   -9.9330 C   0  0  0  0  0  0  0  0  0  0  0  0
   -1.8650    4.4610   -9.3150 H   0  0  0  0  0  0  0  0  0  0  0  0
   -0.3700    4.3090  -10.2700 H   0  0  0  0  0  0  0  0  0  0  0  0
   -0.6920    5.8000   -9.3520 H   0  0  0  0  0  0  0  0  0  0  0  0
   -0.8790    6.3820  -11.9530 C   0  0  0  0  0  0  0  0  0  0  0  0
   -0.0980    5.7220  -12.3300 H   0  0  0  0  0  0  0  0  0  0  0  0
   -1.4020    6.8440  -12.7900 H   0  0  0  0  0  0  0  0  0  0  0  0
   -0.4320    7.1570  -11.3300 H   0  0  0  0  0  0  0  0  0  0  0  0
   -4.5210    2.0210   -7.7850 N   0  0  0  0  0  2  0  0  0  0  0  0
   -5.4600    2.1270   -8.2190 H   0  0  0  0  0  0  0  0  0  0  0  0
   -4.3760    2.2860   -6.3400 C   0  0  2  0  0  0  0  0  0  0  0  0
   -3.3700    1.9630   -6.0710 H   0  0  0  0  0  0  0  0  0  0  0  0
   -5.3740    1.4700   -5.5200 C   0  0  0  0  0  3  0  0  0  0  0  0
   -6.6090    1.7400   -5.5300 O   0  0  0  0  0  0  0  0  0  0  0  0
   -4.4620    3.8040   -5.9870 C   0  0  2  0  0  0  0  0  0  0  0  0
   -5.4400    4.1780   -6.2900 H   0  0  0  0  0  0  0  0  0  0  0  0
   -3.3750    4.5860   -6.7450 C   0  0  0  0  0  0  0  0  0  0  0  0
   -2.4260    4.4330   -6.2310 H   0  0  0  0  0  0  0  0  0  0  0  0
   -3.3090    4.1820   -7.7550 H   0  0  0  0  0  0  0  0  0  0  0  0
   -4.3050    4.0130   -4.4580 C   0  0  0  0  0  0  0  0  0  0  0  0
   -5.1000    3.4810   -3.9360 H   0  0  0  0  0  0  0  0  0  0  0  0
   -3.3370    3.6280   -4.1370 H   0  0  0  0  0  0  0  0  0  0  0  0
   -4.3670    5.0770   -4.2300 H   0  0  0  0  0  0  0  0  0  0  0  0
   -3.6210    6.0930   -6.8510 C   0  0  0  0  0  0  0  0  0  0  0  0
   -4.5590    6.2710   -7.3760 H   0  0  0  0  0  0  0  0  0  0  0  0
   -3.6760    6.5220   -5.8510 H   0  0  0  0  0  0  0  0  0  0  0  0
   -2.8020    6.5560   -7.4010 H   0  0  0  0  0  0  0  0  0  0  0  0
   -7.1030    4.9550  -11.2140 N   0  0  0  0  0  2  0  0  0  0  0  0
   -6.1220    4.6450  -11.0650 H   0  0  0  0  0  0  0  0  0  0  0  0
   -7.3690    6.3930  -11.2260 C   0  0  2  0  0  0  0  0  0  0  0  0
   -8.4260    6.5500  -11.4390 H   0  0  0  0  0  0  0  0  0  0  0  0
   -6.5510    7.1110  -12.3230 C   0  0  0  0  0  3  0  0  0  0  0  0
   -5.3670    6.8340  -12.4820 O   0  0  0  0  0  0  0  0  0  0  0  0
   -6.9990    6.9690   -9.8590 C   0  0  0  0  0  0  0  0  0  0  0  0
   -5.9460    6.7590   -9.6690 H   0  0  0  0  0  0  0  0  0  0  0  0
   -7.1550    8.0480   -9.8840 H   0  0  0  0  0  0  0  0  0  0  0  0
   -7.8100    6.3970   -8.7320 C   0  0  0  0  0  0  0  0  0  0  0  0
   -9.1120    6.7880   -8.4820 N   0  0  0  0  0  0  0  0  0  0  0  0
   -7.5200    5.4300   -7.8250 C   0  0  0  0  0  0  0  0  0  0  0  0
   -6.5730    4.9000   -7.7210 H   0  0  0  0  0  0  0  0  0  0  0  0
   -9.5840    6.0790   -7.4730 C   0  0  0  0  0  0  0  0  0  0  0  0
  -10.5840    6.1660   -7.0470 H   0  0  0  0  0  0  0  0  0  0  0  0
   -8.6430    5.2470   -7.0660 N   0  0  0  0  0  0  0  0  0  0  0  0
   -4.3430    9.9870  -13.8600 N   0  0  0  0  0  2  0  0  0  0  0  0
   -3.9430    9.2670  -14.4950 H   0  0  0  0  0  0  0  0  0  0  0  0
   -3.4660   11.0950  -13.4060 C   0  0  2  0  0  0  0  0  0  0  0  0
   -3.9980   11.6020  -12.6010 H   0  0  0  0  0  0  0  0  0  0  0  0
   -3.1980   12.0700  -14.5610 C   0  0  0  0  0  3  0  0  0  0  0  0
   -2.6940   11.6660  -15.6100 O   0  0  0  0  0  0  0  0  0  0  0  0
   -2.1230   10.5980  -12.8370 C   0  0  0  0  0  0  0  0  0  0  0  0
   -1.6160   10.0380  -13.6230 H   0  0  0  0  0  0  0  0  0  0  0  0
   -1.2160   11.7770  -12.4230 C   0  0  0  0  0  0  0  0  0  0  0  0
   -1.0140   12.4010  -13.2930 H   0  0  0  0  0  0  0  0  0  0  0  0
   -1.7190   12.3690  -11.6580 H   0  0  0  0  0  0  0  0  0  0  0  0
   -0.2780   11.3900  -12.0260 H   0  0  0  0  0  0  0  0  0  0  0  0
   -2.3600    9.6900  -11.6480 C   0  0  0  0  0  0  0  0  0  0  0  0
   -2.8940   10.2400  -10.8730 H   0  0  0  0  0  0  0  0  0  0  0  0
   -2.9540    8.8310  -11.9610 H   0  0  0  0  0  0  0  0  0  0  0  0
   -1.4020    9.3470  -11.2570 H   0  0  0  0  0  0  0  0  0  0  0  0
   10.6540   11.3050   -5.5760 N   0  0  0  0  0  2  0  0  0  0  0  0
   10.3920   12.2850   -5.8030 H   0  0  0  0  0  0  0  0  0  0  0  0
   10.0940   10.6720   -4.3490 C   0  0  2  0  0  0  0  0  0  0  0  0
   10.8680    9.9920   -3.9930 H   0  0  0  0  0  0  0  0  0  0  0  0
    8.8430    9.8410   -4.6350 C   0  0  0  0  0  0  0  0  0  0  0  0
    8.3760    9.1070   -3.7350 O   0  0  0  0  0  0  0  0  0  0  0  0
    9.8210   11.6790   -3.2540 C   0  0  0  0  0  0  0  0  0  0  0  0
   10.7510   12.1790   -2.9810 H   0  0  0  0  0  0  0  0  0  0  0  0
    9.1020   12.4160   -3.6110 H   0  0  0  0  0  0  0  0  0  0  0  0
    9.4140   11.1650   -2.3830 H   0  0  0  0  0  0  0  0  0  0  0  0
    8.3280    9.9240   -5.8760 N   0  0  0  0  0  0  0  0  0  0  0  0
    8.8050   10.5390   -6.5650 H   0  0  0  0  0  0  0  0  0  0  0  0
    7.1420    9.2010   -6.3060 C   0  0  2  0  0  0  0  0  0  0  0  0
    6.4000    9.3360   -5.5190 H   0  0  0  0  0  0  0  0  0  0  0  0
    7.4250    7.7530   -6.4980 C   0  0  0  0  0  0  0  0  0  0  0  0
    8.5700    7.2700   -6.4620 O   0  0  0  0  0  0  0  0  0  0  0  0
    6.6180    9.7450   -7.6390 C   0  0  0  0  0  0  0  0  0  0  0  0
    5.6190    9.3460   -7.8150 H   0  0  0  0  0  0  0  0  0  0  0  0
    7.2840    9.4210   -8.4390 H   0  0  0  0  0  0  0  0  0  0  0  0
    6.5530   11.1910   -7.6390 O   0  0  0  0  0  0  0  0  0  0  0  0
    6.2110   11.5050   -8.5140 H   0  0  0  0  0  0  0  0  0  0  0  0
    6.3550    7.0580   -6.8100 N   0  0  0  0  0  0  0  0  0  0  0  0
    5.4610    7.5640   -6.9720 H   0  0  0  0  0  0  0  0  0  0  0  0
    6.3700    5.6400   -6.9350 C   0  0  2  0  0  0  0  0  0  0  0  0
    7.1620    5.1570   -6.3640 H   0  0  0  0  0  0  0  0  0  0  0  0
    6.5790    5.3360   -8.4090 C   0  0  0  0  0  3  0  0  0  0  0  0
    6.0940    6.0730   -9.2600 O   0  0  0  0  0  0  0  0  0  0  0  0
    5.0220    5.1190   -6.4090 C   0  0  0  0  0  0  0  0  0  0  0  0
    4.2350    5.7010   -6.8870 H   0  0  0  0  0  0  0  0  0  0  0  0
    4.9330    4.0750   -6.7090 H   0  0  0  0  0  0  0  0  0  0  0  0
    4.7900    5.1880   -4.8740 C   0  0  0  0  0  0  0  0  0  0  0  0
    5.0100    6.2120   -4.5710 H   0  0  0  0  0  0  0  0  0  0  0  0
    3.3110    4.7880   -4.5700 C   0  0  0  0  0  0  0  0  0  0  0  0
    2.6380    5.4790   -5.0770 H   0  0  0  0  0  0  0  0  0  0  0  0
    3.1300    3.7740   -4.9260 H   0  0  0  0  0  0  0  0  0  0  0  0
    3.1370    4.8330   -3.4950 H   0  0  0  0  0  0  0  0  0  0  0  0
    5.7270    4.2640   -4.0560 C   0  0  0  0  0  0  0  0  0  0  0  0
    5.5710    3.2290   -4.3610 H   0  0  0  0  0  0  0  0  0  0  0  0
    6.7640    4.5460   -4.2400 H   0  0  0  0  0  0  0  0  0  0  0  0
    5.5030    4.3690   -2.9940 H   0  0  0  0  0  0  0  0  0  0  0  0
    5.3050    3.2970  -10.3550 N   0  0  0  0  0  2  0  0  0  0  0  0
    5.3190    3.2100   -9.3190 H   0  0  0  0  0  0  0  0  0  0  0  0
    4.1120    2.9140  -11.0930 C   0  0  2  0  0  0  0  0  0  0  0  0
    4.3770    2.2010  -11.8730 H   0  0  0  0  0  0  0  0  0  0  0  0
    3.5250    4.1710  -11.7290 C   0  0  0  0  0  0  0  0  0  0  0  0
    2.8290    4.0740  -12.7370 O   0  0  0  0  0  0  0  0  0  0  0  0
    3.0890    2.1810  -10.2000 C   0  0  0  0  0  0  0  0  0  0  0  0
    2.2390    1.8870  -10.8160 H   0  0  0  0  0  0  0  0  0  0  0  0
    3.5630    1.2900   -9.7890 H   0  0  0  0  0  0  0  0  0  0  0  0
    2.5850    3.0260   -9.0590 C   0  0  0  0  0  0  0  0  0  0  0  0
    3.2850    2.9380   -8.2280 H   0  0  0  0  0  0  0  0  0  0  0  0
    2.5440    4.0640   -9.3890 H   0  0  0  0  0  0  0  0  0  0  0  0
    1.2080    2.6210   -8.5730 C   0  0  0  0  0  0  0  0  0  0  0  0
    0.7530    3.4710   -8.0650 H   0  0  0  0  0  0  0  0  0  0  0  0
    0.6000    2.3470   -9.4350 H   0  0  0  0  0  0  0  0  0  0  0  0
    1.2480    1.4500   -7.6160 C   0  0  0  0  0  0  0  0  0  0  0  0
    2.1300    1.5540   -6.9850 H   0  0  0  0  0  0  0  0  0  0  0  0
    1.3270    0.5330   -8.2000 H   0  0  0  0  0  0  0  0  0  0  0  0
    0.0220    1.3380   -6.7120 N   0  0  0  0  0  4  0  0  0  0  0  0
   -0.0630    2.2000   -6.1370 H   0  0  0  0  0  0  0  0  0  0  0  0
   -0.8300    1.2250   -7.2980 H   0  0  0  0  0  0  0  0  0  0  0  0
    0.1270    0.5130   -6.0880 H   0  0  0  0  0  0  0  0  0  0  0  0
    3.8150    5.3320  -11.1570 N   0  0  0  0  0  0  0  0  0  0  0  0
    4.3440    5.3460  -10.2620 H   0  0  0  0  0  0  0  0  0  0  0  0
    3.4060    6.5700  -11.7600 C   0  0  2  0  0  0  0  0  0  0  0  0
    2.6010    6.3500  -12.4610 H   0  0  0  0  0  0  0  0  0  0  0  0
    4.5830    7.2000  -12.5340 C   0  0  0  0  0  3  0  0  0  0  0  0
    4.3900    7.6850  -13.6440 O   0  0  0  0  0  0  0  0  0  0  0  0
    2.8330    7.5740  -10.6990 C   0  0  0  0  0  0  0  0  0  0  0  0
    1.7520    7.4410  -10.6510 H   0  0  0  0  0  0  0  0  0  0  0  0
    3.2710    7.3350   -9.7300 H   0  0  0  0  0  0  0  0  0  0  0  0
    3.1220    9.0400  -11.0060 C   0  0  0  0  0  0  0  0  0  0  0  0
    2.4190    9.6990  -11.9770 C   0  0  0  0  0  0  0  0  0  0  0  0
    1.6340    9.1740  -12.5200 H   0  0  0  0  0  0  0  0  0  0  0  0
    4.1580    9.7400  -10.3510 C   0  0  0  0  0  0  0  0  0  0  0  0
    4.7460    9.2230   -9.5930 H   0  0  0  0  0  0  0  0  0  0  0  0
    2.7000   11.0760  -12.2930 C   0  0  0  0  0  0  0  0  0  0  0  0
    2.1060   11.5870  -13.0510 H   0  0  0  0  0  0  0  0  0  0  0  0
    4.4620   11.1120  -10.6520 C   0  0  0  0  0  0  0  0  0  0  0  0
    5.2550   11.6380  -10.1200 H   0  0  0  0  0  0  0  0  0  0  0  0
    3.7150   11.7570  -11.6450 C   0  0  0  0  0  0  0  0  0  0  0  0
    3.9630   13.0750  -12.0290 O   0  0  0  0  0  0  0  0  0  0  0  0
    3.3260   13.3360  -12.7410 H   0  0  0  0  0  0  0  0  0  0  0  0
   10.9780    6.3050   -4.9480 N   0  0  0  0  0  2  0  0  0  0  0  0
   10.1880    5.9880   -5.5450 H   0  0  0  0  0  0  0  0  0  0  0  0
   10.7200    6.5580   -3.5270 C   0  0  2  0  0  0  0  0  0  0  0  0
   10.9690    7.6020   -3.3390 H   0  0  0  0  0  0  0  0  0  0  0  0
   11.6250    5.7190   -2.6400 C   0  0  0  0  0  3  0  0  0  0  0  0
   12.2670    6.2920   -1.7970 O   0  0  0  0  0  0  0  0  0  0  0  0
    9.2040    6.4100   -3.1540 C   0  0  0  0  0  0  0  0  0  0  0  0
    8.6640    7.2090   -3.6620 H   0  0  0  0  0  0  0  0  0  0  0  0
    8.8680    5.4460   -3.5360 H   0  0  0  0  0  0  0  0  0  0  0  0
    8.8060    6.4750   -1.6050 C   0  0  0  0  0  0  0  0  0  0  0  0
    9.0730    5.5270   -1.1380 H   0  0  0  0  0  0  0  0  0  0  0  0
    9.3690    7.2810   -1.1350 H   0  0  0  0  0  0  0  0  0  0  0  0
    7.2710    6.7340   -1.3710 C   0  0  0  0  0  0  0  0  0  0  0  0
    6.9860    6.4380   -0.3620 H   0  0  0  0  0  0  0  0  0  0  0  0
    6.6770    6.1740   -2.0940 H   0  0  0  0  0  0  0  0  0  0  0  0
    7.0740    8.1750   -1.5550 N   0  0  0  0  0  0  0  0  0  0  0  0
    7.9010    8.7810   -1.3810 H   0  0  0  0  0  0  0  0  0  0  0  0
    5.9530    8.7950   -1.9200 C   0  0  0  0  0  0  0  0  0  0  0  0
    4.8300    8.1290   -2.1550 N   0  0  0  0  0  4  0  0  0  0  0  0
    4.8090    7.0940   -2.0560 H   0  0  0  0  0  0  0  0  0  0  0  0
    3.9710    8.6420   -2.4390 H   0  0  0  0  0  0  0  0  0  0  0  0
    5.9750   10.1110   -2.0680 N   0  0  0  0  0  0  0  0  0  0  0  0
    6.8550   10.6390   -1.9000 H   0  0  0  0  0  0  0  0  0  0  0  0
    5.1120   10.6170   -2.3520 H   0  0  0  0  0  0  0  0  0  0  0  0
   11.6800   13.6970    2.1500 N   0  0  0  0  0  2  0  0  0  0  0  0
   11.0060   14.3750    1.7400 H   0  0  0  0  0  0  0  0  0  0  0  0
   12.3750   12.7460    1.2760 C   0  0  2  0  0  0  0  0  0  0  0  0
   12.5890   11.8420    1.8460 H   0  0  0  0  0  0  0  0  0  0  0  0
   13.6730   13.4000    0.7880 C   0  0  0  0  0  3  0  0  0  0  0  0
   13.6690   14.3550    0.0170 O   0  0  0  0  0  0  0  0  0  0  0  0
   11.5200   12.3200    0.0890 C   0  0  0  0  0  0  0  0  0  0  0  0
   11.3570   13.1990   -0.5350 H   0  0  0  0  0  0  0  0  0  0  0  0
   12.0810   11.5750   -0.4740 H   0  0  0  0  0  0  0  0  0  0  0  0
   10.1640   11.7270    0.4160 C   0  0  0  0  0  0  0  0  0  0  0  0
   10.0310   10.3500    0.7370 C   0  0  0  0  0  0  0  0  0  0  0  0
   10.9170    9.7150    0.7680 H   0  0  0  0  0  0  0  0  0  0  0  0
    9.0060   12.5450    0.3790 C   0  0  0  0  0  0  0  0  0  0  0  0
    9.1020   13.6000    0.1210 H   0  0  0  0  0  0  0  0  0  0  0  0
    8.7740    9.8000    1.0140 C   0  0  0  0  0  0  0  0  0  0  0  0
    8.6750    8.7420    1.2580 H   0  0  0  0  0  0  0  0  0  0  0  0
    7.7410   12.0170    0.6690 C   0  0  0  0  0  0  0  0  0  0  0  0
    6.8570   12.6550    0.6610 H   0  0  0  0  0  0  0  0  0  0  0  0
    7.6340   10.6360    0.9730 C   0  0  0  0  0  0  0  0  0  0  0  0
    6.3730   10.1120    1.2340 O   0  0  0  0  0  0  0  0  0  0  0  0
    6.4530    9.1450    1.4290 H   0  0  0  0  0  0  0  0  0  0  0  0
    6.8140   13.4770   -8.2220 H   0  0  0  0  0  0  0  0  0  0  0  0
   -8.7350    4.5970   -6.3320 H   0  0  0  0  0  0  0  0  0  0  0  0
  1  2  1  0
  1  3  1  0
  3  4  1  6
  3  5  1  0
  3  7  1  0
  5  6  2  0
  7  8  1  0
  7  9  1  0
  7 10  1  0
 10 11  2  0
 10 12  1  0
 12250  1  0
 13 14  1  0
 13 15  1  0
 15 16  1  6
 15 17  1  0
 15 19  1  0
 17 18  2  0
 17 24  1  0
 19 20  1  0
 19 21  1  0
 19 22  1  0
 22 23  1  0
 24 25  1  0
 24 26  1  0
 26 27  1  1
 26 28  1  0
 26 30  1  0
 28 29  2  0
 28 35  1  0
 30 31  1  0
 30 32  1  0
 30 33  1  0
 33 34  1  0
 35 36  1  0
 35 37  1  0
 37 38  1  6
 37 39  1  0
 37 41  1  0
 39 40  2  0
 41 42  1  0
 41 43  1  0
 41 44  1  0
 44 45  2  0
 44 47  1  0
 45 46  1  0
 45 49  1  0
 47 48  1  0
 47 51  2  0
 49 50  1  0
 49 53  2  0
 51 52  1  0
 51 53  1  0
 53 54  1  0
 55 56  1  0
 55 57  1  0
 57 58  1  6
 57 59  1  0
 57 61  1  0
 59 60  2  0
 61 62  1  0
 61 63  1  0
 61 67  1  0
 63 64  1  0
 63 65  1  0
 63 66  1  0
 67 68  1  0
 67 69  1  0
 67 70  1  0
 71 72  1  0
 71 73  1  0
 73 74  1  1
 73 75  1  0
 73 77  1  0
 75 76  2  0
 77 78  1  6
 77 79  1  0
 77 82  1  0
 79 80  1  0
 79 81  1  0
 79 86  1  0
 82 83  1  0
 82 84  1  0
 82 85  1  0
 86 87  1  0
 86 88  1  0
 86 89  1  0
 90 91  1  0
 90 92  1  0
 92 93  1  6
 92 94  1  0
 92 96  1  0
 94 95  2  0
 96 97  1  0
 96 98  1  0
 96 99  1  0
 99100  1  0
 99101  2  0
100103  2  0
101102  1  0
101105  1  0
103104  1  0
103105  1  0
105251  1  0
106107  1  0
106108  1  0
108109  1  1
108110  1  0
108112  1  0
110111  2  0
112113  1  0
112114  1  0
112118  1  0
114115  1  0
114116  1  0
114117  1  0
118119  1  0
118120  1  0
118121  1  0
122123  1  0
122124  1  0
124125  1  1
124126  1  0
124128  1  0
126127  2  0
126132  1  0
128129  1  0
128130  1  0
128131  1  0
132133  1  0
132134  1  0
134135  1  1
134136  1  0
134138  1  0
136137  2  0
136143  1  0
138139  1  0
138140  1  0
138141  1  0
141142  1  0
143144  1  0
143145  1  0
145146  1  1
145147  1  0
145149  1  0
147148  2  0
149150  1  0
149151  1  0
149152  1  0
152153  1  0
152154  1  0
152158  1  0
154155  1  0
154156  1  0
154157  1  0
158159  1  0
158160  1  0
158161  1  0
162163  1  0
162164  1  0
164165  1  6
164166  1  0
164168  1  0
166167  2  0
166184  1  0
168169  1  0
168170  1  0
168171  1  0
171172  1  0
171173  1  0
171174  1  0
174175  1  0
174176  1  0
174177  1  0
177178  1  0
177179  1  0
177180  1  0
180181  1  0
180182  1  0
180183  1  0
184185  1  0
184186  1  0
186187  1  6
186188  1  0
186190  1  0
188189  2  0
190191  1  0
190192  1  0
190193  1  0
193194  2  0
193196  1  0
194195  1  0
194198  1  0
196197  1  0
196200  2  0
198199  1  0
198202  2  0
200201  1  0
200202  1  0
202203  1  0
203204  1  0
205206  1  0
205207  1  0
207208  1  6
207209  1  0
207211  1  0
209210  2  0
211212  1  0
211213  1  0
211214  1  0
214215  1  0
214216  1  0
214217  1  0
217218  1  0
217219  1  0
217220  1  0
220221  1  0
220222  1  0
222223  2  0
222226  1  0
223224  1  0
223225  1  0
226227  1  0
226228  1  0
229230  1  0
229231  1  0
231232  1  1
231233  1  0
231235  1  0
233234  2  0
235236  1  0
235237  1  0
235238  1  0
238239  2  0
238241  1  0
239240  1  0
239243  1  0
241242  1  0
241245  2  0
243244  1  0
243247  2  0
245246  1  0
245247  1  0
247248  1  0
248249  1  0
M  RAD  8   1   2   5   2  13   2  39   2  55   2  59   2  71   2  75   2
M  RAD  8  90   2  94   2 106   2 110   2 122   2 147   2 162   2 188   2
M  CHG  2 180   1 223   1
M  RAD  4 205   2 209   2 229   2 233   2
M  END
$$$$

     RDKit          3D

251245  0  0  0  0  0  0  0  0999 V2000
    8.2390   15.7430  -10.2460 N   0  0  0  0  0  2  0  0  0  0  0  0
    8.4060   14.8450   -9.7480 H   0  0  0  0  0  0  0  0  0  0  0  0
    7.1270   16.5820   -9.8330 C   0  0  2  0  0  0  0  0  0  0  0  0
    6.5240   16.7530  -10.7240 H   0  0  0  0  0  0  0  0  0  0  0  0
    7.5010   17.9630   -9.3590 C   0  0  0  0  0  3  0  0  0  0  0  0
    8.3130   18.1090   -8.4540 O   0  0  0  0  0  0  0  0  0  0  0  0
    6.3630   15.8620   -8.7680 C   0  0  0  0  0  0  0  0  0  0  0  0
    7.0440   15.5910   -7.9610 H   0  0  0  0  0  0  0  0  0  0  0  0
    5.5850   16.5200   -8.3800 H   0  0  0  0  0  0  0  0  0  0  0  0
    5.7360   14.6350   -9.3040 C   0  0  0  0  0  0  0  0  0  0  0  0
    4.8520   14.7920  -10.1880 O   0  0  0  0  0  0  0  0  0  0  0  0
    6.1520   13.5130   -8.8840 O   0  0  0  0  0  0  0  0  0  0  0  0
    1.6580   16.8130  -11.9920 N   0  0  0  0  0  2  0  0  0  0  0  0
    2.3630   16.6600  -11.2430 H   0  0  0  0  0  0  0  0  0  0  0  0
    0.5750   15.8710  -12.1280 C   0  0  2  0  0  0  0  0  0  0  0  0
    0.1290   15.9910  -13.1150 H   0  0  0  0  0  0  0  0  0  0  0  0
   -0.5220   16.1130  -11.1130 C   0  0  0  0  0  0  0  0  0  0  0  0
   -0.2990   16.7340  -10.0760 O   0  0  0  0  0  0  0  0  0  0  0  0
    1.1300   14.4960  -11.9520 C   0  0  0  0  0  0  0  0  0  0  0  0
    0.3140   13.7740  -11.9180 H   0  0  0  0  0  0  0  0  0  0  0  0
    1.6970   14.4460  -11.0220 H   0  0  0  0  0  0  0  0  0  0  0  0
    1.9940   14.1960  -13.0610 O   0  0  0  0  0  0  0  0  0  0  0  0
    2.3660   13.2850  -12.9510 H   0  0  0  0  0  0  0  0  0  0  0  0
   -1.7070   15.5990  -11.3820 N   0  0  0  0  0  0  0  0  0  0  0  0
   -1.8300   15.0390  -12.2500 H   0  0  0  0  0  0  0  0  0  0  0  0
   -2.8500   15.7940  -10.4960 C   0  0  2  0  0  0  0  0  0  0  0  0
   -2.4940   15.6940   -9.4710 H   0  0  0  0  0  0  0  0  0  0  0  0
   -3.9360   14.7420  -10.7100 C   0  0  0  0  0  0  0  0  0  0  0  0
   -4.1170   14.2150  -11.8220 O   0  0  0  0  0  0  0  0  0  0  0  0
   -3.4310   17.1680  -10.7260 C   0  0  0  0  0  0  0  0  0  0  0  0
   -3.6970   17.2780  -11.7770 H   0  0  0  0  0  0  0  0  0  0  0  0
   -2.6920   17.9230  -10.4590 H   0  0  0  0  0  0  0  0  0  0  0  0
   -4.5930   17.3400   -9.9250 O   0  0  0  0  0  0  0  0  0  0  0  0
   -4.9690   18.2430  -10.0800 H   0  0  0  0  0  0  0  0  0  0  0  0
   -4.6520   14.4140   -9.6350 N   0  0  0  0  0  0  0  0  0  0  0  0
   -4.3590   14.7920   -8.7110 H   0  0  0  0  0  0  0  0  0  0  0  0
   -5.8320   13.5460   -9.6910 C   0  0  2  0  0  0  0  0  0  0  0  0
   -5.6450   12.7780  -10.4420 H   0  0  0  0  0  0  0  0  0  0  0  0
   -7.0770   14.3290  -10.1220 C   0  0  0  0  0  3  0  0  0  0  0  0
   -8.0250   13.7390  -10.5890 O   0  0  0  0  0  0  0  0  0  0  0  0
   -6.0610   12.8570   -8.3570 C   0  0  0  0  0  0  0  0  0  0  0  0
   -5.9730   13.6020   -7.5670 H   0  0  0  0  0  0  0  0  0  0  0  0
   -7.0700   12.4440   -8.3540 H   0  0  0  0  0  0  0  0  0  0  0  0
   -5.0730   11.7210   -8.0610 C   0  0  0  0  0  0  0  0  0  0  0  0
   -4.0720   11.8810   -7.1020 C   0  0  0  0  0  0  0  0  0  0  0  0
   -3.9860   12.8270   -6.5670 H   0  0  0  0  0  0  0  0  0  0  0  0
   -5.1740   10.4980   -8.7080 C   0  0  0  0  0  0  0  0  0  0  0  0
   -5.9560   10.3530   -9.4530 H   0  0  0  0  0  0  0  0  0  0  0  0
   -3.1820   10.8480   -6.8190 C   0  0  0  0  0  0  0  0  0  0  0  0
   -2.4060   10.9870   -6.0660 H   0  0  0  0  0  0  0  0  0  0  0  0
   -4.2920    9.4420   -8.4250 C   0  0  0  0  0  0  0  0  0  0  0  0
   -4.4060    8.4830   -8.9310 H   0  0  0  0  0  0  0  0  0  0  0  0
   -3.2860    9.6220   -7.5080 C   0  0  0  0  0  0  0  0  0  0  0  0
   -2.5720    8.8220   -7.3140 H   0  0  0  0  0  0  0  0  0  0  0  0
   -3.3140    5.0230  -13.0570 N   0  0  0  0  0  2  0  0  0  0  0  0
   -4.1400    5.6150  -12.8370 H   0  0  0  0  0  0  0  0  0  0  0  0
   -2.5170    4.4610  -11.9940 C   0  0  2  0  0  0  0  0  0  0  0  0
   -1.7250    3.8470  -12.4230 H   0  0  0  0  0  0  0  0  0  0  0  0
   -3.4380    3.6400  -11.1070 C   0  0  0  0  0  3  0  0  0  0  0  0
   -4.4710    4.1900  -10.6370 O   0  0  0  0  0  0  0  0  0  0  0  0
   -1.8540    5.5840  -11.1350 C   0  0  0  0  0  0  0  0  0  0  0  0
   -2.6490    6.2450  -10.7900 H   0  0  0  0  0  0  0  0  0  0  0  0
   -1.1450    4.9970   -9.9330 C   0  0  0  0  0  0  0  0  0  0  0  0
   -1.8650    4.4610   -9.3150 H   0  0  0  0  0  0  0  0  0  0  0  0
   -0.3700    4.3090  -10.2700 H   0  0  0  0  0  0  0  0  0  0  0  0
   -0.6920    5.8000   -9.3520 H   0  0  0  0  0  0  0  0  0  0  0  0
   -0.8790    6.3820  -11.9530 C   0  0  0  0  0  0  0  0  0  0  0  0
   -0.0980    5.7220  -12.3300 H   0  0  0  0  0  0  0  0  0  0  0  0
   -1.4020    6.8440  -12.7900 H   0  0  0  0  0  0  0  0  0  0  0  0
   -0.4320    7.1570  -11.3300 H   0  0  0  0  0  0  0  0  0  0  0  0
   -4.5210    2.0210   -7.7850 N   0  0  0  0  0  2  0  0  0  0  0  0
   -5.4600    2.1270   -8.2190 H   0  0  0  0  0  0  0  0  0  0  0  0
   -4.3760    2.2860   -6.3400 C   0  0  2  0  0  0  0  0  0  0  0  0
   -3.3700    1.9630   -6.0710 H   0  0  0  0  0  0  0  0  0  0  0  0
   -5.3740    1.4700   -5.5200 C   0  0  0  0  0  3  0  0  0  0  0  0
   -6.6090    1.7400   -5.5300 O   0  0  0  0  0  0  0  0  0  0  0  0
   -4.4620    3.8040   -5.9870 C   0  0  2  0  0  0  0  0  0  0  0  0
   -5.4400    4.1780   -6.2900 H   0  0  0  0  0  0  0  0  0  0  0  0
   -3.3750    4.5860   -6.7450 C   0  0  0  0  0  0  0  0  0  0  0  0
   -2.4260    4.4330   -6.2310 H   0  0  0  0  0  0  0  0  0  0  0  0
   -3.3090    4.1820   -7.7550 H   0  0  0  0  0  0  0  0  0  0  0  0
   -4.3050    4.0130   -4.4580 C   0  0  0  0  0  0  0  0  0  0  0  0
   -5.1000    3.4810   -3.9360 H   0  0  0  0  0  0  0  0  0  0  0  0
   -3.3370    3.6280   -4.1370 H   0  0  0  0  0  0  0  0  0  0  0  0
   -4.3670    5.0770   -4.2300 H   0  0  0  0  0  0  0  0  0  0  0  0
   -3.6210    6.0930   -6.8510 C   0  0  0  0  0  0  0  0  0  0  0  0
   -4.5590    6.2710   -7.3760 H   0  0  0  0  0  0  0  0  0  0  0  0
   -3.6760    6.5220   -5.8510 H   0  0  0  0  0  0  0  0  0  0  0  0
   -2.8020    6.5560   -7.4010 H   0  0  0  0  0  0  0  0  0  0  0  0
   -7.1030    4.9550  -11.2140 N   0  0  0  0  0  2  0  0  0  0  0  0
   -6.1220    4.6450  -11.0650 H   0  0  0  0  0  0  0  0  0  0  0  0
   -7.3690    6.3930  -11.2260 C   0  0  2  0  0  0  0  0  0  0  0  0
   -8.4260    6.5500  -11.4390 H   0  0  0  0  0  0  0  0  0  0  0  0
   -6.5510    7.1110  -12.3230 C   0  0  0  0  0  3  0  0  0  0  0  0
   -5.3670    6.8340  -12.4820 O   0  0  0  0  0  0  0  0  0  0  0  0
   -6.9990    6.9690   -9.8590 C   0  0  0  0  0  0  0  0  0  0  0  0
   -5.9460    6.7590   -9.6690 H   0  0  0  0  0  0  0  0  0  0  0  0
   -7.1550    8.0480   -9.8840 H   0  0  0  0  0  0  0  0  0  0  0  0
   -7.8100    6.3970   -8.7320 C   0  0  0  0  0  0  0  0  0  0  0  0
   -9.1120    6.7880   -8.4820 N   0  0  0  0  0  0  0  0  0  0  0  0
   -7.5200    5.4300   -7.8250 C   0  0  0  0  0  0  0  0  0  0  0  0
   -6.5730    4.9000   -7.7210 H   0  0  0  0  0  0  0  0  0  0  0  0
   -9.5840    6.0790   -7.4730 C   0  0  0  0  0  0  0  0  0  0  0  0
  -10.5840    6.1660   -7.0470 H   0  0  0  0  0  0  0  0  0  0  0  0
   -8.6430    5.2470   -7.0660 N   0  0  0  0  0  0  0  0  0  0  0  0
   -4.3430    9.9870  -13.8600 N   0  0  0  0  0  2  0  0  0  0  0  0
   -3.9430    9.2670  -14.4950 H   0  0  0  0  0  0  0  0  0  0  0  0
   -3.4660   11.0950  -13.4060 C   0  0  2  0  0  0  0  0  0  0  0  0
   -3.9980   11.6020  -12.6010 H   0  0  0  0  0  0  0  0  0  0  0  0
   -3.1980   12.0700  -14.5610 C   0  0  0  0  0  3  0  0  0  0  0  0
   -2.6940   11.6660  -15.6100 O   0  0  0  0  0  0  0  0  0  0  0  0
   -2.1230   10.5980  -12.8370 C   0  0  0  0  0  0  0  0  0  0  0  0
   -1.6160   10.0380  -13.6230 H   0  0  0  0  0  0  0  0  0  0  0  0
   -1.2160   11.7770  -12.4230 C   0  0  0  0  0  0  0  0  0  0  0  0
   -1.0140   12.4010  -13.2930 H   0  0  0  0  0  0  0  0  0  0  0  0
   -1.7190   12.3690  -11.6580 H   0  0  0  0  0  0  0  0  0  0  0  0
   -0.2780   11.3900  -12.0260 H   0  0  0  0  0  0  0  0  0  0  0  0
   -2.3600    9.6900  -11.6480 C   0  0  0  0  0  0  0  0  0  0  0  0
   -2.8940   10.2400  -10.8730 H   0  0  0  0  0  0  0  0  0  0  0  0
   -2.9540    8.8310  -11.9610 H   0  0  0  0  0  0  0  0  0  0  0  0
   -1.4020    9.3470  -11.2570 H   0  0  0  0  0  0  0  0  0  0  0  0
   10.6540   11.3050   -5.5760 N   0  0  0  0  0  2  0  0  0  0  0  0
   10.3920   12.2850   -5.8030 H   0  0  0  0  0  0  0  0  0  0  0  0
   10.0940   10.6720   -4.3490 C   0  0  2  0  0  0  0  0  0  0  0  0
   10.8680    9.9920   -3.9930 H   0  0  0  0  0  0  0  0  0  0  0  0
    8.8430    9.8410   -4.6350 C   0  0  0  0  0  0  0  0  0  0  0  0
    8.3760    9.1070   -3.7350 O   0  0  0  0  0  0  0  0  0  0  0  0
    9.8210   11.6790   -3.2540 C   0  0  0  0  0  0  0  0  0  0  0  0
   10.7510   12.1790   -2.9810 H   0  0  0  0  0  0  0  0  0  0  0  0
    9.1020   12.4160   -3.6110 H   0  0  0  0  0  0  0  0  0  0  0  0
    9.4140   11.1650   -2.3830 H   0  0  0  0  0  0  0  0  0  0  0  0
    8.3280    9.9240   -5.8760 N   0  0  0  0  0  0  0  0  0  0  0  0
    8.8050   10.5390   -6.5650 H   0  0  0  0  0  0  0  0  0  0  0  0
    7.1420    9.2010   -6.3060 C   0  0  2  0  0  0  0  0  0  0  0  0
    6.4000    9.3360   -5.5190 H   0  0  0  0  0  0  0  0  0  0  0  0
    7.4250    7.7530   -6.4980 C   0  0  0  0  0  0  0  0  0  0  0  0
    8.5700    7.2700   -6.4620 O   0  0  0  0  0  0  0  0  0  0  0  0
    6.6180    9.7450   -7.6390 C   0  0  0  0  0  0  0  0  0  0  0  0
    5.6190    9.3460   -7.8150 H   0  0  0  0  0  0  0  0  0  0  0  0
    7.2840    9.4210   -8.4390 H   0  0  0  0  0  0  0  0  0  0  0  0
    6.5530   11.1910   -7.6390 O   0  0  0  0  0  0  0  0  0  0  0  0
    6.2110   11.5050   -8.5140 H   0  0  0  0  0  0  0  0  0  0  0  0
    6.3550    7.0580   -6.8100 N   0  0  0  0  0  0  0  0  0  0  0  0
    5.4610    7.5640   -6.9720 H   0  0  0  0  0  0  0  0  0  0  0  0
    6.3700    5.6400   -6.9350 C   0  0  2  0  0  0  0  0  0  0  0  0
    7.1620    5.1570   -6.3640 H   0  0  0  0  0  0  0  0  0  0  0  0
    6.5790    5.3360   -8.4090 C   0  0  0  0  0  3  0  0  0  0  0  0
    6.0940    6.0730   -9.2600 O   0  0  0  0  0  0  0  0  0  0  0  0
    5.0220    5.1190   -6.4090 C   0  0  0  0  0  0  0  0  0  0  0  0
    4.2350    5.7010   -6.8870 H   0  0  0  0  0  0  0  0  0  0  0  0
    4.9330    4.0750   -6.7090 H   0  0  0  0  0  0  0  0  0  0  0  0
    4.7900    5.1880   -4.8740 C   0  0  0  0  0  0  0  0  0  0  0  0
    5.0100    6.2120   -4.5710 H   0  0  0  0  0  0  0  0  0  0  0  0
    3.3110    4.7880   -4.5700 C   0  0  0  0  0  0  0  0  0  0  0  0
    2.6380    5.4790   -5.0770 H   0  0  0  0  0  0  0  0  0  0  0  0
    3.1300    3.7740   -4.9260 H   0  0  0  0  0  0  0  0  0  0  0  0
    3.1370    4.8330   -3.4950 H   0  0  0  0  0  0  0  0  0  0  0  0
    5.7270    4.2640   -4.0560 C   0  0  0  0  0  0  0  0  0  0  0  0
    5.5710    3.2290   -4.3610 H   0  0  0  0  0  0  0  0  0  0  0  0
    6.7640    4.5460   -4.2400 H   0  0  0  0  0  0  0  0  0  0  0  0
    5.5030    4.3690   -2.9940 H   0  0  0  0  0  0  0  0  0  0  0  0
    5.3050    3.2970  -10.3550 N   0  0  0  0  0  2  0  0  0  0  0  0
    5.3190    3.2100   -9.3190 H   0  0  0  0  0  0  0  0  0  0  0  0
    4.1120    2.9140  -11.0930 C   0  0  2  0  0  0  0  0  0  0  0  0
    4.3770    2.2010  -11.8730 H   0  0  0  0  0  0  0  0  0  0  0  0
    3.5250    4.1710  -11.7290 C   0  0  0  0  0  0  0  0  0  0  0  0
    2.8290    4.0740  -12.7370 O   0  0  0  0  0  0  0  0  0  0  0  0
    3.0890    2.1810  -10.2000 C   0  0  0  0  0  0  0  0  0  0  0  0
    2.2390    1.8870  -10.8160 H   0  0  0  0  0  0  0  0  0  0  0  0
    3.5630    1.2900   -9.7890 H   0  0  0  0  0  0  0  0  0  0  0  0
    2.5850    3.0260   -9.0590 C   0  0  0  0  0  0  0  0  0  0  0  0
    3.2850    2.9380   -8.2280 H   0  0  0  0  0  0  0  0  0  0  0  0
    2.5440    4.0640   -9.3890 H   0  0  0  0  0  0  0  0  0  0  0  0
    1.2080    2.6210   -8.5730 C   0  0  0  0  0  0  0  0  0  0  0  0
    0.7530    3.4710   -8.0650 H   0  0  0  0  0  0  0  0  0  0  0  0
    0.6000    2.3470   -9.4350 H   0  0  0  0  0  0  0  0  0  0  0  0
    1.2480    1.4500   -7.6160 C   0  0  0  0  0  0  0  0  0  0  0  0
    2.1300    1.5540   -6.9850 H   0  0  0  0  0  0  0  0  0  0  0  0
    1.3270    0.5330   -8.2000 H   0  0  0  0  0  0  0  0  0  0  0  0
    0.0220    1.3380   -6.7120 N   0  0  0  0  0  4  0  0  0  0  0  0
   -0.0630    2.2000   -6.1370 H   0  0  0  0  0  0  0  0  0  0  0  0
   -0.8300    1.2250   -7.2980 H   0  0  0  0  0  0  0  0  0  0  0  0
    0.1270    0.5130   -6.0880 H   0  0  0  0  0  0  0  0  0  0  0  0
    3.8150    5.3320  -11.1570 N   0  0  0  0  0  0  0  0  0  0  0  0
    4.3440    5.3460  -10.2620 H   0  0  0  0  0  0  0  0  0  0  0  0
    3.4060    6.5700  -11.7600 C   0  0  2  0  0  0  0  0  0  0  0  0
    2.6010    6.3500  -12.4610 H   0  0  0  0  0  0  0  0  0  0  0  0
    4.5830    7.2000  -12.5340 C   0  0  0  0  0  3  0  0  0  0  0  0
    4.3900    7.6850  -13.6440 O   0  0  0  0  0  0  0  0  0  0  0  0
    2.8330    7.5740  -10.6990 C   0  0  0  0  0  0  0  0  0  0  0  0
    1.7520    7.4410  -10.6510 H   0  0  0  0  0  0  0  0  0  0  0  0
    3.2710    7.3350   -9.7300 H   0  0  0  0  0  0  0  0  0  0  0  0
    3.1220    9.0400  -11.0060 C   0  0  0  0  0  0  0  0  0  0  0  0
    2.4190    9.6990  -11.9770 C   0  0  0  0  0  0  0  0  0  0  0  0
    1.6340    9.1740  -12.5200 H   0  0  0  0  0  0  0  0  0  0  0  0
    4.1580    9.7400  -10.3510 C   0  0  0  0  0  0  0  0  0  0  0  0
    4.7460    9.2230   -9.5930 H   0  0  0  0  0  0  0  0  0  0  0  0
    2.7000   11.0760  -12.2930 C   0  0  0  0  0  0  0  0  0  0  0  0
    2.1060   11.5870  -13.0510 H   0  0  0  0  0  0  0  0  0  0  0  0
    4.4620   11.1120  -10.6520 C   0  0  0  0  0  0  0  0  0  0  0  0
    5.2550   11.6380  -10.1200 H   0  0  0  0  0  0  0  0  0  0  0  0
    3.7150   11.7570  -11.6450 C   0  0  0  0  0  0  0  0  0  0  0  0
    3.9630   13.0750  -12.0290 O   0  0  0  0  0  0  0  0  0  0  0  0
    3.3260   13.3360  -12.7410 H   0  0  0  0  0  0  0  0  0  0  0  0
   10.9780    6.3050   -4.9480 N   0  0  0  0  0  2  0  0  0  0  0  0
   10.1880    5.9880   -5.5450 H   0  0  0  0  0  0  0  0  0  0  0  0
   10.7200    6.5580   -3.5270 C   0  0  2  0  0  0  0  0  0  0  0  0
   10.9690    7.6020   -3.3390 H   0  0  0  0  0  0  0  0  0  0  0  0
   11.6250    5.7190   -2.6400 C   0  0  0  0  0  3  0  0  0  0  0  0
   12.2670    6.2920   -1.7970 O   0  0  0  0  0  0  0  0  0  0  0  0
    9.2040    6.4100   -3.1540 C   0  0  0  0  0  0  0  0  0  0  0  0
    8.6640    7.2090   -3.6620 H   0  0  0  0  0  0  0  0  0  0  0  0
    8.8680    5.4460   -3.5360 H   0  0  0  0  0  0  0  0  0  0  0  0
    8.8060    6.4750   -1.6050 C   0  0  0  0  0  0  0  0  0  0  0  0
    9.0730    5.5270   -1.1380 H   0  0  0  0  0  0  0  0  0  0  0  0
    9.3690    7.2810   -1.1350 H   0  0  0  0  0  0  0  0  0  0  0  0
    7.2710    6.7340   -1.3710 C   0  0  0  0  0  0  0  0  0  0  0  0
    6.9860    6.4380   -0.3620 H   0  0  0  0  0  0  0  0  0  0  0  0
    6.6770    6.1740   -2.0940 H   0  0  0  0  0  0  0  0  0  0  0  0
    7.0740    8.1750   -1.5550 N   0  0  0  0  0  0  0  0  0  0  0  0
    7.9010    8.7810   -1.3810 H   0  0  0  0  0  0  0  0  0  0  0  0
    5.9530    8.7950   -1.9200 C   0  0  0  0  0  0  0  0  0  0  0  0
    4.8300    8.1290   -2.1550 N   0  0  0  0  0  4  0  0  0  0  0  0
    4.8090    7.0940   -2.0560 H   0  0  0  0  0  0  0  0  0  0  0  0
    3.9710    8.6420   -2.4390 H   0  0  0  0  0  0  0  0  0  0  0  0
    5.9750   10.1110   -2.0680 N   0  0  0  0  0  0  0  0  0  0  0  0
    6.8550   10.6390   -1.9000 H   0  0  0  0  0  0  0  0  0  0  0  0
    5.1120   10.6170   -2.3520 H   0  0  0  0  0  0  0  0  0  0  0  0
   11.6800   13.6970    2.1500 N   0  0  0  0  0  2  0  0  0  0  0  0
   11.0060   14.3750    1.7400 H   0  0  0  0  0  0  0  0  0  0  0  0
   12.3750   12.7460    1.2760 C   0  0  2  0  0  0  0  0  0  0  0  0
   12.5890   11.8420    1.8460 H   0  0  0  0  0  0  0  0  0  0  0  0
   13.6730   13.4000    0.7880 C   0  0  0  0  0  3  0  0  0  0  0  0
   13.6690   14.3550    0.0170 O   0  0  0  0  0  0  0  0  0  0  0  0
   11.5200   12.3200    0.0890 C   0  0  0  0  0  0  0  0  0  0  0  0
   11.3570   13.1990   -0.5350 H   0  0  0  0  0  0  0  0  0  0  0  0
   12.0810   11.5750   -0.4740 H   0  0  0  0  0  0  0  0  0  0  0  0
   10.1640   11.7270    0.4160 C   0  0  0  0  0  0  0  0  0  0  0  0
   10.0310   10.3500    0.7370 C   0  0  0  0  0  0  0  0  0  0  0  0
   10.9170    9.7150    0.7680 H   0  0  0  0  0  0  0  0  0  0  0  0
    9.0060   12.5450    0.3790 C   0  0  0  0  0  0  0  0  0  0  0  0
    9.1020   13.6000    0.1210 H   0  0  0  0  0  0  0  0  0  0  0  0
    8.7740    9.8000    1.0140 C   0  0  0  0  0  0  0  0  0  0  0  0
    8.6750    8.7420    1.2580 H   0  0  0  0  0  0  0  0  0  0  0  0
    7.7410   12.0170    0.6690 C   0  0  0  0  0  0  0  0  0  0  0  0
    6.8570   12.6550    0.6610 H   0  0  0  0  0  0  0  0  0  0  0  0
    7.6340   10.6360    0.9730 C   0  0  0  0  0  0  0  0  0  0  0  0
    6.3730   10.1120    1.2340 O   0  0  0  0  0  0  0  0  0  0  0  0
    6.4530    9.1450    1.4290 H   0  0  0  0  0  0  0  0  0  0  0  0
    6.8140   13.4770   -8.2220 H   0  0  0  0  0  0  0  0  0  0  0  0
   -8.7350    4.5970   -6.3320 H   0  0  0  0  0  0  0  0  0  0  0  0
  1  2  1  0
  1  3  1  0
  3  4  1  6
  3  5  1  0
  3  7  1  0
  5  6  2  0
  7  8  1  0
  7  9  1  0
  7 10  1  0
 10 11  2  0
 10 12  1  0
 12250  1  0
 13 14  1  0
 13 15  1  0
 15 16  1  6
 15 17  1  0
 15 19  1  0
 17 18  2  0
 17 24  1  0
 19 20  1  0
 19 21  1  0
 19 22  1  0
 22 23  1  0
 24 25  1  0
 24 26  1  0
 26 27  1  1
 26 28  1  0
 26 30  1  0
 28 29  2  0
 28 35  1  0
 30 31  1  0
 30 32  1  0
 30 33  1  0
 33 34  1  0
 35 36  1  0
 35 37  1  0
 37 38  1  6
 37 39  1  0
 37 41  1  0
 39 40  2  0
 41 42  1  0
 41 43  1  0
 41 44  1  0
 44 45  2  0
 44 47  1  0
 45 46  1  0
 45 49  1  0
 47 48  1  0
 47 51  2  0
 49 50  1  0
 49 53  2  0
 51 52  1  0
 51 53  1  0
 53 54  1  0
 55 56  1  0
 55 57  1  0
 57 58  1  6
 57 59  1  0
 57 61  1  0
 59 60  2  0
 61 62  1  0
 61 63  1  0
 61 67  1  0
 63 64  1  0
 63 65  1  0
 63 66  1  0
 67 68  1  0
 67 69  1  0
 67 70  1  0
 71 72  1  0
 71 73  1  0
 73 74  1  1
 73 75  1  0
 73 77  1  0
 75 76  2  0
 77 78  1  6
 77 79  1  0
 77 82  1  0
 79 80  1  0
 79 81  1  0
 79 86  1  0
 82 83  1  0
 82 84  1  0
 82 85  1  0
 86 87  1  0
 86 88  1  0
 86 89  1  0
 90 91  1  0
 90 92  1  0
 92 93  1  6
 92 94  1  0
 92 96  1  0
 94 95  2  0
 96 97  1  0
 96 98  1  0
 96 99  1  0
 99100  1  0
 99101  2  0
100103  2  0
101102  1  0
101105  1  0
103104  1  0
103105  1  0
105251  1  0
106107  1  0
106108  1  0
108109  1  1
108110  1  0
108112  1  0
110111  2  0
112113  1  0
112114  1  0
112118  1  0
114115  1  0
114116  1  0
114117  1  0
118119  1  0
118120  1  0
118121  1  0
122123  1  0
122124  1  0
124125  1  1
124126  1  0
124128  1  0
126127  2  0
126132  1  0
128129  1  0
128130  1  0
128131  1  0
132133  1  0
132134  1  0
134135  1  1
134136  1  0
134138  1  0
136137  2  0
136143  1  0
138139  1  0
138140  1  0
138141  1  0
141142  1  0
143144  1  0
143145  1  0
145146  1  1
145147  1  0
145149  1  0
147148  2  0
149150  1  0
149151  1  0
149152  1  0
152153  1  0
152154  1  0
152158  1  0
154155  1  0
154156  1  0
154157  1  0
158159  1  0
158160  1  0
158161  1  0
162163  1  0
162164  1  0
164165  1  6
164166  1  0
164168  1  0
166167  2  0
166184  1  0
168169  1  0
168170  1  0
168171  1  0
171172  1  0
171173  1  0
171174  1  0
174175  1  0
174176  1  0
174177  1  0
177178  1  0
177179  1  0
177180  1  0
180181  1  0
180182  1  0
180183  1  0
184185  1  0
184186  1  0
186187  1  6
186188  1  0
186190  1  0
188189  2  0
190191  1  0
190192  1  0
190193  1  0
193194  2  0
193196  1  0
194195  1  0
194198  1  0
196197  1  0
196200  2  0
198199  1  0
198202  2  0
200201  1  0
200202  1  0
202203  1  0
203204  1  0
205206  1  0
205207  1  0
207208  1  6
207209  1  0
207211  1  0
209210  2  0
211212  1  0
211213  1  0
211214  1  0
214215  1  0
214216  1  0
214217  1  0
217218  1  0
217219  1  0
217220  1  0
220221  1  0
220222  1  0
222223  2  0
222226  1  0
223224  1  0
223225  1  0
226227  1  0
226228  1  0
229230  1  0
229231  1  0
231232  1  1
231233  1  0
231235  1  0
233234  2  0
235236  1  0
235237  1  0
235238  1  0
238239  2  0
238241  1  0
239240  1  0
239243  1  0
241242  1  0
241245  2  0
243244  1  0
243247  2  0
245246  1  0
245247  1  0
247248  1  0
248249  1  0
M  RAD  8   1   2   5   2  13   2  39   2  55   2  59   2  71   2  75   2
M  RAD  8  90   2  94   2 106   2 110   2 122   2 147   2 162   2 188   2
M  CHG  2 180   1 223   1
M  RAD  4 205   2 209   2 229   2 233   2
M  END
$$$$

     RDKit          3D

251245  0  0  0  0  0  0  0  0999 V2000
    8.2390   15.7430  -10.2460 N   0  0  0  0  0  2  0  0  0  0  0  0
    8.4060   14.8450   -9.7480 H   0  0  0  0  0  0  0  0  0  0  0  0
    7.1270   16.5820   -9.8330 C   0  0  2  0  0  0  0  0  0  0  0  0
    6.5240   16.7530  -10.7240 H   0  0  0  0  0  0  0  0  0  0  0  0
    7.5010   17.9630   -9.3590 C   0  0  0  0  0  3  0  0  0  0  0  0
    8.3130   18.1090   -8.4540 O   0  0  0  0  0  0  0  0  0  0  0  0
    6.3630   15.8620   -8.7680 C   0  0  0  0  0  0  0  0  0  0  0  0
    7.0440   15.5910   -7.9610 H   0  0  0  0  0  0  0  0  0  0  0  0
    5.5850   16.5200   -8.3800 H   0  0  0  0  0  0  0  0  0  0  0  0
    5.7360   14.6350   -9.3040 C   0  0  0  0  0  0  0  0  0  0  0  0
    4.8520   14.7920  -10.1880 O   0  0  0  0  0  0  0  0  0  0  0  0
    6.1520   13.5130   -8.8840 O   0  0  0  0  0  0  0  0  0  0  0  0
    1.6580   16.8130  -11.9920 N   0  0  0  0  0  2  0  0  0  0  0  0
    2.3630   16.6600  -11.2430 H   0  0  0  0  0  0  0  0  0  0  0  0
    0.5750   15.8710  -12.1280 C   0  0  2  0  0  0  0  0  0  0  0  0
    0.1290   15.9910  -13.1150 H   0  0  0  0  0  0  0  0  0  0  0  0
   -0.5220   16.1130  -11.1130 C   0  0  0  0  0  0  0  0  0  0  0  0
   -0.2990   16.7340  -10.0760 O   0  0  0  0  0  0  0  0  0  0  0  0
    1.1300   14.4960  -11.9520 C   0  0  0  0  0  0  0  0  0  0  0  0
    0.3140   13.7740  -11.9180 H   0  0  0  0  0  0  0  0  0  0  0  0
    1.6970   14.4460  -11.0220 H   0  0  0  0  0  0  0  0  0  0  0  0
    1.9940   14.1960  -13.0610 O   0  0  0  0  0  0  0  0  0  0  0  0
    2.3660   13.2850  -12.9510 H   0  0  0  0  0  0  0  0  0  0  0  0
   -1.7070   15.5990  -11.3820 N   0  0  0  0  0  0  0  0  0  0  0  0
   -1.8300   15.0390  -12.2500 H   0  0  0  0  0  0  0  0  0  0  0  0
   -2.8500   15.7940  -10.4960 C   0  0  2  0  0  0  0  0  0  0  0  0
   -2.4940   15.6940   -9.4710 H   0  0  0  0  0  0  0  0  0  0  0  0
   -3.9360   14.7420  -10.7100 C   0  0  0  0  0  0  0  0  0  0  0  0
   -4.1170   14.2150  -11.8220 O   0  0  0  0  0  0  0  0  0  0  0  0
   -3.4310   17.1680  -10.7260 C   0  0  0  0  0  0  0  0  0  0  0  0
   -3.6970   17.2780  -11.7770 H   0  0  0  0  0  0  0  0  0  0  0  0
   -2.6920   17.9230  -10.4590 H   0  0  0  0  0  0  0  0  0  0  0  0
   -4.5930   17.3400   -9.9250 O   0  0  0  0  0  0  0  0  0  0  0  0
   -4.9690   18.2430  -10.0800 H   0  0  0  0  0  0  0  0  0  0  0  0
   -4.6520   14.4140   -9.6350 N   0  0  0  0  0  0  0  0  0  0  0  0
   -4.3590   14.7920   -8.7110 H   0  0  0  0  0  0  0  0  0  0  0  0
   -5.8320   13.5460   -9.6910 C   0  0  2  0  0  0  0  0  0  0  0  0
   -5.6450   12.7780  -10.4420 H   0  0  0  0  0  0  0  0  0  0  0  0
   -7.0770   14.3290  -10.1220 C   0  0  0  0  0  3  0  0  0  0  0  0
   -8.0250   13.7390  -10.5890 O   0  0  0  0  0  0  0  0  0  0  0  0
   -6.0610   12.8570   -8.3570 C   0  0  0  0  0  0  0  0  0  0  0  0
   -5.9730   13.6020   -7.5670 H   0  0  0  0  0  0  0  0  0  0  0  0
   -7.0700   12.4440   -8.3540 H   0  0  0  0  0  0  0  0  0  0  0  0
   -5.0730   11.7210   -8.0610 C   0  0  0  0  0  0  0  0  0  0  0  0
   -4.0720   11.8810   -7.1020 C   0  0  0  0  0  0  0  0  0  0  0  0
   -3.9860   12.8270   -6.5670 H   0  0  0  0  0  0  0  0  0  0  0  0
   -5.1740   10.4980   -8.7080 C   0  0  0  0  0  0  0  0  0  0  0  0
   -5.9560   10.3530   -9.4530 H   0  0  0  0  0  0  0  0  0  0  0  0
   -3.1820   10.8480   -6.8190 C   0  0  0  0  0  0  0  0  0  0  0  0
   -2.4060   10.9870   -6.0660 H   0  0  0  0  0  0  0  0  0  0  0  0
   -4.2920    9.4420   -8.4250 C   0  0  0  0  0  0  0  0  0  0  0  0
   -4.4060    8.4830   -8.9310 H   0  0  0  0  0  0  0  0  0  0  0  0
   -3.2860    9.6220   -7.5080 C   0  0  0  0  0  0  0  0  0  0  0  0
   -2.5720    8.8220   -7.3140 H   0  0  0  0  0  0  0  0  0  0  0  0
   -3.3140    5.0230  -13.0570 N   0  0  0  0  0  2  0  0  0  0  0  0
   -4.1400    5.6150  -12.8370 H   0  0  0  0  0  0  0  0  0  0  0  0
   -2.5170    4.4610  -11.9940 C   0  0  2  0  0  0  0  0  0  0  0  0
   -1.7250    3.8470  -12.4230 H   0  0  0  0  0  0  0  0  0  0  0  0
   -3.4380    3.6400  -11.1070 C   0  0  0  0  0  3  0  0  0  0  0  0
   -4.4710    4.1900  -10.6370 O   0  0  0  0  0  0  0  0  0  0  0  0
   -1.8540    5.5840  -11.1350 C   0  0  0  0  0  0  0  0  0  0  0  0
   -2.6490    6.2450  -10.7900 H   0  0  0  0  0  0  0  0  0  0  0  0
   -1.1450    4.9970   -9.9330 C   0  0  0  0  0  0  0  0  0  0  0  0
   -1.8650    4.4610   -9.3150 H   0  0  0  0  0  0  0  0  0  0  0  0
   -0.3700    4.3090  -10.2700 H   0  0  0  0  0  0  0  0  0  0  0  0
   -0.6920    5.8000   -9.3520 H   0  0  0  0  0  0  0  0  0  0  0  0
   -0.8790    6.3820  -11.9530 C   0  0  0  0  0  0  0  0  0  0  0  0
   -0.0980    5.7220  -12.3300 H   0  0  0  0  0  0  0  0  0  0  0  0
   -1.4020    6.8440  -12.7900 H   0  0  0  0  0  0  0  0  0  0  0  0
   -0.4320    7.1570  -11.3300 H   0  0  0  0  0  0  0  0  0  0  0  0
   -4.5210    2.0210   -7.7850 N   0  0  0  0  0  2  0  0  0  0  0  0
   -5.4600    2.1270   -8.2190 H   0  0  0  0  0  0  0  0  0  0  0  0
   -4.3760    2.2860   -6.3400 C   0  0  2  0  0  0  0  0  0  0  0  0
   -3.3700    1.9630   -6.0710 H   0  0  0  0  0  0  0  0  0  0  0  0
   -5.3740    1.4700   -5.5200 C   0  0  0  0  0  3  0  0  0  0  0  0
   -6.6090    1.7400   -5.5300 O   0  0  0  0  0  0  0  0  0  0  0  0
   -4.4620    3.8040   -5.9870 C   0  0  2  0  0  0  0  0  0  0  0  0
   -5.4400    4.1780   -6.2900 H   0  0  0  0  0  0  0  0  0  0  0  0
   -3.3750    4.5860   -6.7450 C   0  0  0  0  0  0  0  0  0  0  0  0
   -2.4260    4.4330   -6.2310 H   0  0  0  0  0  0  0  0  0  0  0  0
   -3.3090    4.1820   -7.7550 H   0  0  0  0  0  0  0  0  0  0  0  0
   -4.3050    4.0130   -4.4580 C   0  0  0  0  0  0  0  0  0  0  0  0
   -5.1000    3.4810   -3.9360 H   0  0  0  0  0  0  0  0  0  0  0  0
   -3.3370    3.6280   -4.1370 H   0  0  0  0  0  0  0  0  0  0  0  0
   -4.3670    5.0770   -4.2300 H   0  0  0  0  0  0  0  0  0  0  0  0
   -3.6210    6.0930   -6.8510 C   0  0  0  0  0  0  0  0  0  0  0  0
   -4.5590    6.2710   -7.3760 H   0  0  0  0  0  0  0  0  0  0  0  0
   -3.6760    6.5220   -5.8510 H   0  0  0  0  0  0  0  0  0  0  0  0
   -2.8020    6.5560   -7.4010 H   0  0  0  0  0  0  0  0  0  0  0  0
   -7.1030    4.9550  -11.2140 N   0  0  0  0  0  2  0  0  0  0  0  0
   -6.1220    4.6450  -11.0650 H   0  0  0  0  0  0  0  0  0  0  0  0
   -7.3690    6.3930  -11.2260 C   0  0  2  0  0  0  0  0  0  0  0  0
   -8.4260    6.5500  -11.4390 H   0  0  0  0  0  0  0  0  0  0  0  0
   -6.5510    7.1110  -12.3230 C   0  0  0  0  0  3  0  0  0  0  0  0
   -5.3670    6.8340  -12.4820 O   0  0  0  0  0  0  0  0  0  0  0  0
   -6.9990    6.9690   -9.8590 C   0  0  0  0  0  0  0  0  0  0  0  0
   -5.9460    6.7590   -9.6690 H   0  0  0  0  0  0  0  0  0  0  0  0
   -7.1550    8.0480   -9.8840 H   0  0  0  0  0  0  0  0  0  0  0  0
   -7.8100    6.3970   -8.7320 C   0  0  0  0  0  0  0  0  0  0  0  0
   -9.1120    6.7880   -8.4820 N   0  0  0  0  0  0  0  0  0  0  0  0
   -7.5200    5.4300   -7.8250 C   0  0  0  0  0  0  0  0  0  0  0  0
   -6.5730    4.9000   -7.7210 H   0  0  0  0  0  0  0  0  0  0  0  0
   -9.5840    6.0790   -7.4730 C   0  0  0  0  0  0  0  0  0  0  0  0
  -10.5840    6.1660   -7.0470 H   0  0  0  0  0  0  0  0  0  0  0  0
   -8.6430    5.2470   -7.0660 N   0  0  0  0  0  0  0  0  0  0  0  0
   -4.3430    9.9870  -13.8600 N   0  0  0  0  0  2  0  0  0  0  0  0
   -3.9430    9.2670  -14.4950 H   0  0  0  0  0  0  0  0  0  0  0  0
   -3.4660   11.0950  -13.4060 C   0  0  2  0  0  0  0  0  0  0  0  0
   -3.9980   11.6020  -12.6010 H   0  0  0  0  0  0  0  0  0  0  0  0
   -3.1980   12.0700  -14.5610 C   0  0  0  0  0  3  0  0  0  0  0  0
   -2.6940   11.6660  -15.6100 O   0  0  0  0  0  0  0  0  0  0  0  0
   -2.1230   10.5980  -12.8370 C   0  0  0  0  0  0  0  0  0  0  0  0
   -1.6160   10.0380  -13.6230 H   0  0  0  0  0  0  0  0  0  0  0  0
   -1.2160   11.7770  -12.4230 C   0  0  0  0  0  0  0  0  0  0  0  0
   -1.0140   12.4010  -13.2930 H   0  0  0  0  0  0  0  0  0  0  0  0
   -1.7190   12.3690  -11.6580 H   0  0  0  0  0  0  0  0  0  0  0  0
   -0.2780   11.3900  -12.0260 H   0  0  0  0  0  0  0  0  0  0  0  0
   -2.3600    9.6900  -11.6480 C   0  0  0  0  0  0  0  0  0  0  0  0
   -2.8940   10.2400  -10.8730 H   0  0  0  0  0  0  0  0  0  0  0  0
   -2.9540    8.8310  -11.9610 H   0  0  0  0  0  0  0  0  0  0  0  0
   -1.4020    9.3470  -11.2570 H   0  0  0  0  0  0  0  0  0  0  0  0
   10.6540   11.3050   -5.5760 N   0  0  0  0  0  2  0  0  0  0  0  0
   10.3920   12.2850   -5.8030 H   0  0  0  0  0  0  0  0  0  0  0  0
   10.0940   10.6720   -4.3490 C   0  0  2  0  0  0  0  0  0  0  0  0
   10.8680    9.9920   -3.9930 H   0  0  0  0  0  0  0  0  0  0  0  0
    8.8430    9.8410   -4.6350 C   0  0  0  0  0  0  0  0  0  0  0  0
    8.3760    9.1070   -3.7350 O   0  0  0  0  0  0  0  0  0  0  0  0
    9.8210   11.6790   -3.2540 C   0  0  0  0  0  0  0  0  0  0  0  0
   10.7510   12.1790   -2.9810 H   0  0  0  0  0  0  0  0  0  0  0  0
    9.1020   12.4160   -3.6110 H   0  0  0  0  0  0  0  0  0  0  0  0
    9.4140   11.1650   -2.3830 H   0  0  0  0  0  0  0  0  0  0  0  0
    8.3280    9.9240   -5.8760 N   0  0  0  0  0  0  0  0  0  0  0  0
    8.8050   10.5390   -6.5650 H   0  0  0  0  0  0  0  0  0  0  0  0
    7.1420    9.2010   -6.3060 C   0  0  2  0  0  0  0  0  0  0  0  0
    6.4000    9.3360   -5.5190 H   0  0  0  0  0  0  0  0  0  0  0  0
    7.4250    7.7530   -6.4980 C   0  0  0  0  0  0  0  0  0  0  0  0
    8.5700    7.2700   -6.4620 O   0  0  0  0  0  0  0  0  0  0  0  0
    6.6180    9.7450   -7.6390 C   0  0  0  0  0  0  0  0  0  0  0  0
    5.6190    9.3460   -7.8150 H   0  0  0  0  0  0  0  0  0  0  0  0
    7.2840    9.4210   -8.4390 H   0  0  0  0  0  0  0  0  0  0  0  0
    6.5530   11.1910   -7.6390 O   0  0  0  0  0  0  0  0  0  0  0  0
    6.2110   11.5050   -8.5140 H   0  0  0  0  0  0  0  0  0  0  0  0
    6.3550    7.0580   -6.8100 N   0  0  0  0  0  0  0  0  0  0  0  0
    5.4610    7.5640   -6.9720 H   0  0  0  0  0  0  0  0  0  0  0  0
    6.3700    5.6400   -6.9350 C   0  0  2  0  0  0  0  0  0  0  0  0
    7.1620    5.1570   -6.3640 H   0  0  0  0  0  0  0  0  0  0  0  0
    6.5790    5.3360   -8.4090 C   0  0  0  0  0  3  0  0  0  0  0  0
    6.0940    6.0730   -9.2600 O   0  0  0  0  0  0  0  0  0  0  0  0
    5.0220    5.1190   -6.4090 C   0  0  0  0  0  0  0  0  0  0  0  0
    4.2350    5.7010   -6.8870 H   0  0  0  0  0  0  0  0  0  0  0  0
    4.9330    4.0750   -6.7090 H   0  0  0  0  0  0  0  0  0  0  0  0
    4.7900    5.1880   -4.8740 C   0  0  0  0  0  0  0  0  0  0  0  0
    5.0100    6.2120   -4.5710 H   0  0  0  0  0  0  0  0  0  0  0  0
    3.3110    4.7880   -4.5700 C   0  0  0  0  0  0  0  0  0  0  0  0
    2.6380    5.4790   -5.0770 H   0  0  0  0  0  0  0  0  0  0  0  0
    3.1300    3.7740   -4.9260 H   0  0  0  0  0  0  0  0  0  0  0  0
    3.1370    4.8330   -3.4950 H   0  0  0  0  0  0  0  0  0  0  0  0
    5.7270    4.2640   -4.0560 C   0  0  0  0  0  0  0  0  0  0  0  0
    5.5710    3.2290   -4.3610 H   0  0  0  0  0  0  0  0  0  0  0  0
    6.7640    4.5460   -4.2400 H   0  0  0  0  0  0  0  0  0  0  0  0
    5.5030    4.3690   -2.9940 H   0  0  0  0  0  0  0  0  0  0  0  0
    5.3050    3.2970  -10.3550 N   0  0  0  0  0  2  0  0  0  0  0  0
    5.3190    3.2100   -9.3190 H   0  0  0  0  0  0  0  0  0  0  0  0
    4.1120    2.9140  -11.0930 C   0  0  2  0  0  0  0  0  0  0  0  0
    4.3770    2.2010  -11.8730 H   0  0  0  0  0  0  0  0  0  0  0  0
    3.5250    4.1710  -11.7290 C   0  0  0  0  0  0  0  0  0  0  0  0
    2.8290    4.0740  -12.7370 O   0  0  0  0  0  0  0  0  0  0  0  0
    3.0890    2.1810  -10.2000 C   0  0  0  0  0  0  0  0  0  0  0  0
    2.2390    1.8870  -10.8160 H   0  0  0  0  0  0  0  0  0  0  0  0
    3.5630    1.2900   -9.7890 H   0  0  0  0  0  0  0  0  0  0  0  0
    2.5850    3.0260   -9.0590 C   0  0  0  0  0  0  0  0  0  0  0  0
    3.2850    2.9380   -8.2280 H   0  0  0  0  0  0  0  0  0  0  0  0
    2.5440    4.0640   -9.3890 H   0  0  0  0  0  0  0  0  0  0  0  0
    1.2080    2.6210   -8.5730 C   0  0  0  0  0  0  0  0  0  0  0  0
    0.7530    3.4710   -8.0650 H   0  0  0  0  0  0  0  0  0  0  0  0
    0.6000    2.3470   -9.4350 H   0  0  0  0  0  0  0  0  0  0  0  0
    1.2480    1.4500   -7.6160 C   0  0  0  0  0  0  0  0  0  0  0  0
    2.1300    1.5540   -6.9850 H   0  0  0  0  0  0  0  0  0  0  0  0
    1.3270    0.5330   -8.2000 H   0  0  0  0  0  0  0  0  0  0  0  0
    0.0220    1.3380   -6.7120 N   0  0  0  0  0  4  0  0  0  0  0  0
   -0.0630    2.2000   -6.1370 H   0  0  0  0  0  0  0  0  0  0  0  0
   -0.8300    1.2250   -7.2980 H   0  0  0  0  0  0  0  0  0  0  0  0
    0.1270    0.5130   -6.0880 H   0  0  0  0  0  0  0  0  0  0  0  0
    3.8150    5.3320  -11.1570 N   0  0  0  0  0  0  0  0  0  0  0  0
    4.3440    5.3460  -10.2620 H   0  0  0  0  0  0  0  0  0  0  0  0
    3.4060    6.5700  -11.7600 C   0  0  2  0  0  0  0  0  0  0  0  0
    2.6010    6.3500  -12.4610 H   0  0  0  0  0  0  0  0  0  0  0  0
    4.5830    7.2000  -12.5340 C   0  0  0  0  0  3  0  0  0  0  0  0
    4.3900    7.6850  -13.6440 O   0  0  0  0  0  0  0  0  0  0  0  0
    2.8330    7.5740  -10.6990 C   0  0  0  0  0  0  0  0  0  0  0  0
    1.7520    7.4410  -10.6510 H   0  0  0  0  0  0  0  0  0  0  0  0
    3.2710    7.3350   -9.7300 H   0  0  0  0  0  0  0  0  0  0  0  0
    3.1220    9.0400  -11.0060 C   0  0  0  0  0  0  0  0  0  0  0  0
    2.4190    9.6990  -11.9770 C   0  0  0  0  0  0  0  0  0  0  0  0
    1.6340    9.1740  -12.5200 H   0  0  0  0  0  0  0  0  0  0  0  0
    4.1580    9.7400  -10.3510 C   0  0  0  0  0  0  0  0  0  0  0  0
    4.7460    9.2230   -9.5930 H   0  0  0  0  0  0  0  0  0  0  0  0
    2.7000   11.0760  -12.2930 C   0  0  0  0  0  0  0  0  0  0  0  0
    2.1060   11.5870  -13.0510 H   0  0  0  0  0  0  0  0  0  0  0  0
    4.4620   11.1120  -10.6520 C   0  0  0  0  0  0  0  0  0  0  0  0
    5.2550   11.6380  -10.1200 H   0  0  0  0  0  0  0  0  0  0  0  0
    3.7150   11.7570  -11.6450 C   0  0  0  0  0  0  0  0  0  0  0  0
    3.9630   13.0750  -12.0290 O   0  0  0  0  0  0  0  0  0  0  0  0
    3.3260   13.3360  -12.7410 H   0  0  0  0  0  0  0  0  0  0  0  0
   10.9780    6.3050   -4.9480 N   0  0  0  0  0  2  0  0  0  0  0  0
   10.1880    5.9880   -5.5450 H   0  0  0  0  0  0  0  0  0  0  0  0
   10.7200    6.5580   -3.5270 C   0  0  2  0  0  0  0  0  0  0  0  0
   10.9690    7.6020   -3.3390 H   0  0  0  0  0  0  0  0  0  0  0  0
   11.6250    5.7190   -2.6400 C   0  0  0  0  0  3  0  0  0  0  0  0
   12.2670    6.2920   -1.7970 O   0  0  0  0  0  0  0  0  0  0  0  0
    9.2040    6.4100   -3.1540 C   0  0  0  0  0  0  0  0  0  0  0  0
    8.6640    7.2090   -3.6620 H   0  0  0  0  0  0  0  0  0  0  0  0
    8.8680    5.4460   -3.5360 H   0  0  0  0  0  0  0  0  0  0  0  0
    8.8060    6.4750   -1.6050 C   0  0  0  0  0  0  0  0  0  0  0  0
    9.0730    5.5270   -1.1380 H   0  0  0  0  0  0  0  0  0  0  0  0
    9.3690    7.2810   -1.1350 H   0  0  0  0  0  0  0  0  0  0  0  0
    7.2710    6.7340   -1.3710 C   0  0  0  0  0  0  0  0  0  0  0  0
    6.9860    6.4380   -0.3620 H   0  0  0  0  0  0  0  0  0  0  0  0
    6.6770    6.1740   -2.0940 H   0  0  0  0  0  0  0  0  0  0  0  0
    7.0740    8.1750   -1.5550 N   0  0  0  0  0  0  0  0  0  0  0  0
    7.9010    8.7810   -1.3810 H   0  0  0  0  0  0  0  0  0  0  0  0
    5.9530    8.7950   -1.9200 C   0  0  0  0  0  0  0  0  0  0  0  0
    4.8300    8.1290   -2.1550 N   0  0  0  0  0  4  0  0  0  0  0  0
    4.8090    7.0940   -2.0560 H   0  0  0  0  0  0  0  0  0  0  0  0
    3.9710    8.6420   -2.4390 H   0  0  0  0  0  0  0  0  0  0  0  0
    5.9750   10.1110   -2.0680 N   0  0  0  0  0  0  0  0  0  0  0  0
    6.8550   10.6390   -1.9000 H   0  0  0  0  0  0  0  0  0  0  0  0
    5.1120   10.6170   -2.3520 H   0  0  0  0  0  0  0  0  0  0  0  0
   11.6800   13.6970    2.1500 N   0  0  0  0  0  2  0  0  0  0  0  0
   11.0060   14.3750    1.7400 H   0  0  0  0  0  0  0  0  0  0  0  0
   12.3750   12.7460    1.2760 C   0  0  2  0  0  0  0  0  0  0  0  0
   12.5890   11.8420    1.8460 H   0  0  0  0  0  0  0  0  0  0  0  0
   13.6730   13.4000    0.7880 C   0  0  0  0  0  3  0  0  0  0  0  0
   13.6690   14.3550    0.0170 O   0  0  0  0  0  0  0  0  0  0  0  0
   11.5200   12.3200    0.0890 C   0  0  0  0  0  0  0  0  0  0  0  0
   11.3570   13.1990   -0.5350 H   0  0  0  0  0  0  0  0  0  0  0  0
   12.0810   11.5750   -0.4740 H   0  0  0  0  0  0  0  0  0  0  0  0
   10.1640   11.7270    0.4160 C   0  0  0  0  0  0  0  0  0  0  0  0
   10.0310   10.3500    0.7370 C   0  0  0  0  0  0  0  0  0  0  0  0
   10.9170    9.7150    0.7680 H   0  0  0  0  0  0  0  0  0  0  0  0
    9.0060   12.5450    0.3790 C   0  0  0  0  0  0  0  0  0  0  0  0
    9.1020   13.6000    0.1210 H   0  0  0  0  0  0  0  0  0  0  0  0
    8.7740    9.8000    1.0140 C   0  0  0  0  0  0  0  0  0  0  0  0
    8.6750    8.7420    1.2580 H   0  0  0  0  0  0  0  0  0  0  0  0
    7.7410   12.0170    0.6690 C   0  0  0  0  0  0  0  0  0  0  0  0
    6.8570   12.6550    0.6610 H   0  0  0  0  0  0  0  0  0  0  0  0
    7.6340   10.6360    0.9730 C   0  0  0  0  0  0  0  0  0  0  0  0
    6.3730   10.1120    1.2340 O   0  0  0  0  0  0  0  0  0  0  0  0
    6.4530    9.1450    1.4290 H   0  0  0  0  0  0  0  0  0  0  0  0
    6.8140   13.4770   -8.2220 H   0  0  0  0  0  0  0  0  0  0  0  0
   -8.7350    4.5970   -6.3320 H   0  0  0  0  0  0  0  0  0  0  0  0
  1  2  1  0
  1  3  1  0
  3  4  1  6
  3  5  1  0
  3  7  1  0
  5  6  2  0
  7  8  1  0
  7  9  1  0
  7 10  1  0
 10 11  2  0
 10 12  1  0
 12250  1  0
 13 14  1  0
 13 15  1  0
 15 16  1  6
 15 17  1  0
 15 19  1  0
 17 18  2  0
 17 24  1  0
 19 20  1  0
 19 21  1  0
 19 22  1  0
 22 23  1  0
 24 25  1  0
 24 26  1  0
 26 27  1  1
 26 28  1  0
 26 30  1  0
 28 29  2  0
 28 35  1  0
 30 31  1  0
 30 32  1  0
 30 33  1  0
 33 34  1  0
 35 36  1  0
 35 37  1  0
 37 38  1  6
 37 39  1  0
 37 41  1  0
 39 40  2  0
 41 42  1  0
 41 43  1  0
 41 44  1  0
 44 45  2  0
 44 47  1  0
 45 46  1  0
 45 49  1  0
 47 48  1  0
 47 51  2  0
 49 50  1  0
 49 53  2  0
 51 52  1  0
 51 53  1  0
 53 54  1  0
 55 56  1  0
 55 57  1  0
 57 58  1  6
 57 59  1  0
 57 61  1  0
 59 60  2  0
 61 62  1  0
 61 63  1  0
 61 67  1  0
 63 64  1  0
 63 65  1  0
 63 66  1  0
 67 68  1  0
 67 69  1  0
 67 70  1  0
 71 72  1  0
 71 73  1  0
 73 74  1  1
 73 75  1  0
 73 77  1  0
 75 76  2  0
 77 78  1  6
 77 79  1  0
 77 82  1  0
 79 80  1  0
 79 81  1  0
 79 86  1  0
 82 83  1  0
 82 84  1  0
 82 85  1  0
 86 87  1  0
 86 88  1  0
 86 89  1  0
 90 91  1  0
 90 92  1  0
 92 93  1  6
 92 94  1  0
 92 96  1  0
 94 95  2  0
 96 97  1  0
 96 98  1  0
 96 99  1  0
 99100  1  0
 99101  2  0
100103  2  0
101102  1  0
101105  1  0
103104  1  0
103105  1  0
105251  1  0
106107  1  0
106108  1  0
108109  1  1
108110  1  0
108112  1  0
110111  2  0
112113  1  0
112114  1  0
112118  1  0
114115  1  0
114116  1  0
114117  1  0
118119  1  0
118120  1  0
118121  1  0
122123  1  0
122124  1  0
124125  1  1
124126  1  0
124128  1  0
126127  2  0
126132  1  0
128129  1  0
128130  1  0
128131  1  0
132133  1  0
132134  1  0
134135  1  1
134136  1  0
134138  1  0
136137  2  0
136143  1  0
138139  1  0
138140  1  0
138141  1  0
141142  1  0
143144  1  0
143145  1  0
145146  1  1
145147  1  0
145149  1  0
147148  2  0
149150  1  0
149151  1  0
149152  1  0
152153  1  0
152154  1  0
152158  1  0
154155  1  0
154156  1  0
154157  1  0
158159  1  0
158160  1  0
158161  1  0
162163  1  0
162164  1  0
164165  1  6
164166  1  0
164168  1  0
166167  2  0
166184  1  0
168169  1  0
168170  1  0
168171  1  0
171172  1  0
171173  1  0
171174  1  0
174175  1  0
174176  1  0
174177  1  0
177178  1  0
177179  1  0
177180  1  0
180181  1  0
180182  1  0
180183  1  0
184185  1  0
184186  1  0
186187  1  6
186188  1  0
186190  1  0
188189  2  0
190191  1  0
190192  1  0
190193  1  0
193194  2  0
193196  1  0
194195  1  0
194198  1  0
196197  1  0
196200  2  0
198199  1  0
198202  2  0
200201  1  0
200202  1  0
202203  1  0
203204  1  0
205206  1  0
205207  1  0
207208  1  6
207209  1  0
207211  1  0
209210  2  0
211212  1  0
211213  1  0
211214  1  0
214215  1  0
214216  1  0
214217  1  0
217218  1  0
217219  1  0
217220  1  0
220221  1  0
220222  1  0
222223  2  0
222226  1  0
223224  1  0
223225  1  0
226227  1  0
226228  1  0
229230  1  0
229231  1  0
231232  1  1
231233  1  0
231235  1  0
233234  2  0
235236  1  0
235237  1  0
235238  1  0
238239  2  0
238241  1  0
239240  1  0
239243  1  0
241242  1  0
241245  2  0
243244  1  0
243247  2  0
245246  1  0
245247  1  0
247248  1  0
248249  1  0
M  RAD  8   1   2   5   2  13   2  39   2  55   2  59   2  71   2  75   2
M  RAD  8  90   2  94   2 106   2 110   2 122   2 147   2 162   2 188   2
M  CHG  2 180   1 223   1
M  RAD  4 205   2 209   2 229   2 233   2
M  END
$$$$

     RDKit          3D

251245  0  0  0  0  0  0  0  0999 V2000
    8.2390   15.7430  -10.2460 N   0  0  0  0  0  2  0  0  0  0  0  0
    8.4060   14.8450   -9.7480 H   0  0  0  0  0  0  0  0  0  0  0  0
    7.1270   16.5820   -9.8330 C   0  0  2  0  0  0  0  0  0  0  0  0
    6.5240   16.7530  -10.7240 H   0  0  0  0  0  0  0  0  0  0  0  0
    7.5010   17.9630   -9.3590 C   0  0  0  0  0  3  0  0  0  0  0  0
    8.3130   18.1090   -8.4540 O   0  0  0  0  0  0  0  0  0  0  0  0
    6.3630   15.8620   -8.7680 C   0  0  0  0  0  0  0  0  0  0  0  0
    7.0440   15.5910   -7.9610 H   0  0  0  0  0  0  0  0  0  0  0  0
    5.5850   16.5200   -8.3800 H   0  0  0  0  0  0  0  0  0  0  0  0
    5.7360   14.6350   -9.3040 C   0  0  0  0  0  0  0  0  0  0  0  0
    4.8520   14.7920  -10.1880 O   0  0  0  0  0  0  0  0  0  0  0  0
    6.1520   13.5130   -8.8840 O   0  0  0  0  0  0  0  0  0  0  0  0
    1.6580   16.8130  -11.9920 N   0  0  0  0  0  2  0  0  0  0  0  0
    2.3630   16.6600  -11.2430 H   0  0  0  0  0  0  0  0  0  0  0  0
    0.5750   15.8710  -12.1280 C   0  0  2  0  0  0  0  0  0  0  0  0
    0.1290   15.9910  -13.1150 H   0  0  0  0  0  0  0  0  0  0  0  0
   -0.5220   16.1130  -11.1130 C   0  0  0  0  0  0  0  0  0  0  0  0
   -0.2990   16.7340  -10.0760 O   0  0  0  0  0  0  0  0  0  0  0  0
    1.1300   14.4960  -11.9520 C   0  0  0  0  0  0  0  0  0  0  0  0
    0.3140   13.7740  -11.9180 H   0  0  0  0  0  0  0  0  0  0  0  0
    1.6970   14.4460  -11.0220 H   0  0  0  0  0  0  0  0  0  0  0  0
    1.9940   14.1960  -13.0610 O   0  0  0  0  0  0  0  0  0  0  0  0
    2.3660   13.2850  -12.9510 H   0  0  0  0  0  0  0  0  0  0  0  0
   -1.7070   15.5990  -11.3820 N   0  0  0  0  0  0  0  0  0  0  0  0
   -1.8300   15.0390  -12.2500 H   0  0  0  0  0  0  0  0  0  0  0  0
   -2.8500   15.7940  -10.4960 C   0  0  2  0  0  0  0  0  0  0  0  0
   -2.4940   15.6940   -9.4710 H   0  0  0  0  0  0  0  0  0  0  0  0
   -3.9360   14.7420  -10.7100 C   0  0  0  0  0  0  0  0  0  0  0  0
   -4.1170   14.2150  -11.8220 O   0  0  0  0  0  0  0  0  0  0  0  0
   -3.4310   17.1680  -10.7260 C   0  0  0  0  0  0  0  0  0  0  0  0
   -3.6970   17.2780  -11.7770 H   0  0  0  0  0  0  0  0  0  0  0  0
   -2.6920   17.9230  -10.4590 H   0  0  0  0  0  0  0  0  0  0  0  0
   -4.5930   17.3400   -9.9250 O   0  0  0  0  0  0  0  0  0  0  0  0
   -4.9690   18.2430  -10.0800 H   0  0  0  0  0  0  0  0  0  0  0  0
   -4.6520   14.4140   -9.6350 N   0  0  0  0  0  0  0  0  0  0  0  0
   -4.3590   14.7920   -8.7110 H   0  0  0  0  0  0  0  0  0  0  0  0
   -5.8320   13.5460   -9.6910 C   0  0  2  0  0  0  0  0  0  0  0  0
   -5.6450   12.7780  -10.4420 H   0  0  0  0  0  0  0  0  0  0  0  0
   -7.0770   14.3290  -10.1220 C   0  0  0  0  0  3  0  0  0  0  0  0
   -8.0250   13.7390  -10.5890 O   0  0  0  0  0  0  0  0  0  0  0  0
   -6.0610   12.8570   -8.3570 C   0  0  0  0  0  0  0  0  0  0  0  0
   -5.9730   13.6020   -7.5670 H   0  0  0  0  0  0  0  0  0  0  0  0
   -7.0700   12.4440   -8.3540 H   0  0  0  0  0  0  0  0  0  0  0  0
   -5.0730   11.7210   -8.0610 C   0  0  0  0  0  0  0  0  0  0  0  0
   -4.0720   11.8810   -7.1020 C   0  0  0  0  0  0  0  0  0  0  0  0
   -3.9860   12.8270   -6.5670 H   0  0  0  0  0  0  0  0  0  0  0  0
   -5.1740   10.4980   -8.7080 C   0  0  0  0  0  0  0  0  0  0  0  0
   -5.9560   10.3530   -9.4530 H   0  0  0  0  0  0  0  0  0  0  0  0
   -3.1820   10.8480   -6.8190 C   0  0  0  0  0  0  0  0  0  0  0  0
   -2.4060   10.9870   -6.0660 H   0  0  0  0  0  0  0  0  0  0  0  0
   -4.2920    9.4420   -8.4250 C   0  0  0  0  0  0  0  0  0  0  0  0
   -4.4060    8.4830   -8.9310 H   0  0  0  0  0  0  0  0  0  0  0  0
   -3.2860    9.6220   -7.5080 C   0  0  0  0  0  0  0  0  0  0  0  0
   -2.5720    8.8220   -7.3140 H   0  0  0  0  0  0  0  0  0  0  0  0
   -3.3140    5.0230  -13.0570 N   0  0  0  0  0  2  0  0  0  0  0  0
   -4.1400    5.6150  -12.8370 H   0  0  0  0  0  0  0  0  0  0  0  0
   -2.5170    4.4610  -11.9940 C   0  0  2  0  0  0  0  0  0  0  0  0
   -1.7250    3.8470  -12.4230 H   0  0  0  0  0  0  0  0  0  0  0  0
   -3.4380    3.6400  -11.1070 C   0  0  0  0  0  3  0  0  0  0  0  0
   -4.4710    4.1900  -10.6370 O   0  0  0  0  0  0  0  0  0  0  0  0
   -1.8540    5.5840  -11.1350 C   0  0  0  0  0  0  0  0  0  0  0  0
   -2.6490    6.2450  -10.7900 H   0  0  0  0  0  0  0  0  0  0  0  0
   -1.1450    4.9970   -9.9330 C   0  0  0  0  0  0  0  0  0  0  0  0
   -1.8650    4.4610   -9.3150 H   0  0  0  0  0  0  0  0  0  0  0  0
   -0.3700    4.3090  -10.2700 H   0  0  0  0  0  0  0  0  0  0  0  0
   -0.6920    5.8000   -9.3520 H   0  0  0  0  0  0  0  0  0  0  0  0
   -0.8790    6.3820  -11.9530 C   0  0  0  0  0  0  0  0  0  0  0  0
   -0.0980    5.7220  -12.3300 H   0  0  0  0  0  0  0  0  0  0  0  0
   -1.4020    6.8440  -12.7900 H   0  0  0  0  0  0  0  0  0  0  0  0
   -0.4320    7.1570  -11.3300 H   0  0  0  0  0  0  0  0  0  0  0  0
   -4.5210    2.0210   -7.7850 N   0  0  0  0  0  2  0  0  0  0  0  0
   -5.4600    2.1270   -8.2190 H   0  0  0  0  0  0  0  0  0  0  0  0
   -4.3760    2.2860   -6.3400 C   0  0  2  0  0  0  0  0  0  0  0  0
   -3.3700    1.9630   -6.0710 H   0  0  0  0  0  0  0  0  0  0  0  0
   -5.3740    1.4700   -5.5200 C   0  0  0  0  0  3  0  0  0  0  0  0
   -6.6090    1.7400   -5.5300 O   0  0  0  0  0  0  0  0  0  0  0  0
   -4.4620    3.8040   -5.9870 C   0  0  2  0  0  0  0  0  0  0  0  0
   -5.4400    4.1780   -6.2900 H   0  0  0  0  0  0  0  0  0  0  0  0
   -3.3750    4.5860   -6.7450 C   0  0  0  0  0  0  0  0  0  0  0  0
   -2.4260    4.4330   -6.2310 H   0  0  0  0  0  0  0  0  0  0  0  0
   -3.3090    4.1820   -7.7550 H   0  0  0  0  0  0  0  0  0  0  0  0
   -4.3050    4.0130   -4.4580 C   0  0  0  0  0  0  0  0  0  0  0  0
   -5.1000    3.4810   -3.9360 H   0  0  0  0  0  0  0  0  0  0  0  0
   -3.3370    3.6280   -4.1370 H   0  0  0  0  0  0  0  0  0  0  0  0
   -4.3670    5.0770   -4.2300 H   0  0  0  0  0  0  0  0  0  0  0  0
   -3.6210    6.0930   -6.8510 C   0  0  0  0  0  0  0  0  0  0  0  0
   -4.5590    6.2710   -7.3760 H   0  0  0  0  0  0  0  0  0  0  0  0
   -3.6760    6.5220   -5.8510 H   0  0  0  0  0  0  0  0  0  0  0  0
   -2.8020    6.5560   -7.4010 H   0  0  0  0  0  0  0  0  0  0  0  0
   -7.1030    4.9550  -11.2140 N   0  0  0  0  0  2  0  0  0  0  0  0
   -6.1220    4.6450  -11.0650 H   0  0  0  0  0  0  0  0  0  0  0  0
   -7.3690    6.3930  -11.2260 C   0  0  2  0  0  0  0  0  0  0  0  0
   -8.4260    6.5500  -11.4390 H   0  0  0  0  0  0  0  0  0  0  0  0
   -6.5510    7.1110  -12.3230 C   0  0  0  0  0  3  0  0  0  0  0  0
   -5.3670    6.8340  -12.4820 O   0  0  0  0  0  0  0  0  0  0  0  0
   -6.9990    6.9690   -9.8590 C   0  0  0  0  0  0  0  0  0  0  0  0
   -5.9460    6.7590   -9.6690 H   0  0  0  0  0  0  0  0  0  0  0  0
   -7.1550    8.0480   -9.8840 H   0  0  0  0  0  0  0  0  0  0  0  0
   -7.8100    6.3970   -8.7320 C   0  0  0  0  0  0  0  0  0  0  0  0
   -9.1120    6.7880   -8.4820 N   0  0  0  0  0  0  0  0  0  0  0  0
   -7.5200    5.4300   -7.8250 C   0  0  0  0  0  0  0  0  0  0  0  0
   -6.5730    4.9000   -7.7210 H   0  0  0  0  0  0  0  0  0  0  0  0
   -9.5840    6.0790   -7.4730 C   0  0  0  0  0  0  0  0  0  0  0  0
  -10.5840    6.1660   -7.0470 H   0  0  0  0  0  0  0  0  0  0  0  0
   -8.6430    5.2470   -7.0660 N   0  0  0  0  0  0  0  0  0  0  0  0
   -4.3430    9.9870  -13.8600 N   0  0  0  0  0  2  0  0  0  0  0  0
   -3.9430    9.2670  -14.4950 H   0  0  0  0  0  0  0  0  0  0  0  0
   -3.4660   11.0950  -13.4060 C   0  0  2  0  0  0  0  0  0  0  0  0
   -3.9980   11.6020  -12.6010 H   0  0  0  0  0  0  0  0  0  0  0  0
   -3.1980   12.0700  -14.5610 C   0  0  0  0  0  3  0  0  0  0  0  0
   -2.6940   11.6660  -15.6100 O   0  0  0  0  0  0  0  0  0  0  0  0
   -2.1230   10.5980  -12.8370 C   0  0  0  0  0  0  0  0  0  0  0  0
   -1.6160   10.0380  -13.6230 H   0  0  0  0  0  0  0  0  0  0  0  0
   -1.2160   11.7770  -12.4230 C   0  0  0  0  0  0  0  0  0  0  0  0
   -1.0140   12.4010  -13.2930 H   0  0  0  0  0  0  0  0  0  0  0  0
   -1.7190   12.3690  -11.6580 H   0  0  0  0  0  0  0  0  0  0  0  0
   -0.2780   11.3900  -12.0260 H   0  0  0  0  0  0  0  0  0  0  0  0
   -2.3600    9.6900  -11.6480 C   0  0  0  0  0  0  0  0  0  0  0  0
   -2.8940   10.2400  -10.8730 H   0  0  0  0  0  0  0  0  0  0  0  0
   -2.9540    8.8310  -11.9610 H   0  0  0  0  0  0  0  0  0  0  0  0
   -1.4020    9.3470  -11.2570 H   0  0  0  0  0  0  0  0  0  0  0  0
   10.6540   11.3050   -5.5760 N   0  0  0  0  0  2  0  0  0  0  0  0
   10.3920   12.2850   -5.8030 H   0  0  0  0  0  0  0  0  0  0  0  0
   10.0940   10.6720   -4.3490 C   0  0  2  0  0  0  0  0  0  0  0  0
   10.8680    9.9920   -3.9930 H   0  0  0  0  0  0  0  0  0  0  0  0
    8.8430    9.8410   -4.6350 C   0  0  0  0  0  0  0  0  0  0  0  0
    8.3760    9.1070   -3.7350 O   0  0  0  0  0  0  0  0  0  0  0  0
    9.8210   11.6790   -3.2540 C   0  0  0  0  0  0  0  0  0  0  0  0
   10.7510   12.1790   -2.9810 H   0  0  0  0  0  0  0  0  0  0  0  0
    9.1020   12.4160   -3.6110 H   0  0  0  0  0  0  0  0  0  0  0  0
    9.4140   11.1650   -2.3830 H   0  0  0  0  0  0  0  0  0  0  0  0
    8.3280    9.9240   -5.8760 N   0  0  0  0  0  0  0  0  0  0  0  0
    8.8050   10.5390   -6.5650 H   0  0  0  0  0  0  0  0  0  0  0  0
    7.1420    9.2010   -6.3060 C   0  0  2  0  0  0  0  0  0  0  0  0
    6.4000    9.3360   -5.5190 H   0  0  0  0  0  0  0  0  0  0  0  0
    7.4250    7.7530   -6.4980 C   0  0  0  0  0  0  0  0  0  0  0  0
    8.5700    7.2700   -6.4620 O   0  0  0  0  0  0  0  0  0  0  0  0
    6.6180    9.7450   -7.6390 C   0  0  0  0  0  0  0  0  0  0  0  0
    5.6190    9.3460   -7.8150 H   0  0  0  0  0  0  0  0  0  0  0  0
    7.2840    9.4210   -8.4390 H   0  0  0  0  0  0  0  0  0  0  0  0
    6.5530   11.1910   -7.6390 O   0  0  0  0  0  0  0  0  0  0  0  0
    6.2110   11.5050   -8.5140 H   0  0  0  0  0  0  0  0  0  0  0  0
    6.3550    7.0580   -6.8100 N   0  0  0  0  0  0  0  0  0  0  0  0
    5.4610    7.5640   -6.9720 H   0  0  0  0  0  0  0  0  0  0  0  0
    6.3700    5.6400   -6.9350 C   0  0  2  0  0  0  0  0  0  0  0  0
    7.1620    5.1570   -6.3640 H   0  0  0  0  0  0  0  0  0  0  0  0
    6.5790    5.3360   -8.4090 C   0  0  0  0  0  3  0  0  0  0  0  0
    6.0940    6.0730   -9.2600 O   0  0  0  0  0  0  0  0  0  0  0  0
    5.0220    5.1190   -6.4090 C   0  0  0  0  0  0  0  0  0  0  0  0
    4.2350    5.7010   -6.8870 H   0  0  0  0  0  0  0  0  0  0  0  0
    4.9330    4.0750   -6.7090 H   0  0  0  0  0  0  0  0  0  0  0  0
    4.7900    5.1880   -4.8740 C   0  0  0  0  0  0  0  0  0  0  0  0
    5.0100    6.2120   -4.5710 H   0  0  0  0  0  0  0  0  0  0  0  0
    3.3110    4.7880   -4.5700 C   0  0  0  0  0  0  0  0  0  0  0  0
    2.6380    5.4790   -5.0770 H   0  0  0  0  0  0  0  0  0  0  0  0
    3.1300    3.7740   -4.9260 H   0  0  0  0  0  0  0  0  0  0  0  0
    3.1370    4.8330   -3.4950 H   0  0  0  0  0  0  0  0  0  0  0  0
    5.7270    4.2640   -4.0560 C   0  0  0  0  0  0  0  0  0  0  0  0
    5.5710    3.2290   -4.3610 H   0  0  0  0  0  0  0  0  0  0  0  0
    6.7640    4.5460   -4.2400 H   0  0  0  0  0  0  0  0  0  0  0  0
    5.5030    4.3690   -2.9940 H   0  0  0  0  0  0  0  0  0  0  0  0
    5.3050    3.2970  -10.3550 N   0  0  0  0  0  2  0  0  0  0  0  0
    5.3190    3.2100   -9.3190 H   0  0  0  0  0  0  0  0  0  0  0  0
    4.1120    2.9140  -11.0930 C   0  0  2  0  0  0  0  0  0  0  0  0
    4.3770    2.2010  -11.8730 H   0  0  0  0  0  0  0  0  0  0  0  0
    3.5250    4.1710  -11.7290 C   0  0  0  0  0  0  0  0  0  0  0  0
    2.8290    4.0740  -12.7370 O   0  0  0  0  0  0  0  0  0  0  0  0
    3.0890    2.1810  -10.2000 C   0  0  0  0  0  0  0  0  0  0  0  0
    2.2390    1.8870  -10.8160 H   0  0  0  0  0  0  0  0  0  0  0  0
    3.5630    1.2900   -9.7890 H   0  0  0  0  0  0  0  0  0  0  0  0
    2.5850    3.0260   -9.0590 C   0  0  0  0  0  0  0  0  0  0  0  0
    3.2850    2.9380   -8.2280 H   0  0  0  0  0  0  0  0  0  0  0  0
    2.5440    4.0640   -9.3890 H   0  0  0  0  0  0  0  0  0  0  0  0
    1.2080    2.6210   -8.5730 C   0  0  0  0  0  0  0  0  0  0  0  0
    0.7530    3.4710   -8.0650 H   0  0  0  0  0  0  0  0  0  0  0  0
    0.6000    2.3470   -9.4350 H   0  0  0  0  0  0  0  0  0  0  0  0
    1.2480    1.4500   -7.6160 C   0  0  0  0  0  0  0  0  0  0  0  0
    2.1300    1.5540   -6.9850 H   0  0  0  0  0  0  0  0  0  0  0  0
    1.3270    0.5330   -8.2000 H   0  0  0  0  0  0  0  0  0  0  0  0
    0.0220    1.3380   -6.7120 N   0  0  0  0  0  4  0  0  0  0  0  0
   -0.0630    2.2000   -6.1370 H   0  0  0  0  0  0  0  0  0  0  0  0
   -0.8300    1.2250   -7.2980 H   0  0  0  0  0  0  0  0  0  0  0  0
    0.1270    0.5130   -6.0880 H   0  0  0  0  0  0  0  0  0  0  0  0
    3.8150    5.3320  -11.1570 N   0  0  0  0  0  0  0  0  0  0  0  0
    4.3440    5.3460  -10.2620 H   0  0  0  0  0  0  0  0  0  0  0  0
    3.4060    6.5700  -11.7600 C   0  0  2  0  0  0  0  0  0  0  0  0
    2.6010    6.3500  -12.4610 H   0  0  0  0  0  0  0  0  0  0  0  0
    4.5830    7.2000  -12.5340 C   0  0  0  0  0  3  0  0  0  0  0  0
    4.3900    7.6850  -13.6440 O   0  0  0  0  0  0  0  0  0  0  0  0
    2.8330    7.5740  -10.6990 C   0  0  0  0  0  0  0  0  0  0  0  0
    1.7520    7.4410  -10.6510 H   0  0  0  0  0  0  0  0  0  0  0  0
    3.2710    7.3350   -9.7300 H   0  0  0  0  0  0  0  0  0  0  0  0
    3.1220    9.0400  -11.0060 C   0  0  0  0  0  0  0  0  0  0  0  0
    2.4190    9.6990  -11.9770 C   0  0  0  0  0  0  0  0  0  0  0  0
    1.6340    9.1740  -12.5200 H   0  0  0  0  0  0  0  0  0  0  0  0
    4.1580    9.7400  -10.3510 C   0  0  0  0  0  0  0  0  0  0  0  0
    4.7460    9.2230   -9.5930 H   0  0  0  0  0  0  0  0  0  0  0  0
    2.7000   11.0760  -12.2930 C   0  0  0  0  0  0  0  0  0  0  0  0
    2.1060   11.5870  -13.0510 H   0  0  0  0  0  0  0  0  0  0  0  0
    4.4620   11.1120  -10.6520 C   0  0  0  0  0  0  0  0  0  0  0  0
    5.2550   11.6380  -10.1200 H   0  0  0  0  0  0  0  0  0  0  0  0
    3.7150   11.7570  -11.6450 C   0  0  0  0  0  0  0  0  0  0  0  0
    3.9630   13.0750  -12.0290 O   0  0  0  0  0  0  0  0  0  0  0  0
    3.3260   13.3360  -12.7410 H   0  0  0  0  0  0  0  0  0  0  0  0
   10.9780    6.3050   -4.9480 N   0  0  0  0  0  2  0  0  0  0  0  0
   10.1880    5.9880   -5.5450 H   0  0  0  0  0  0  0  0  0  0  0  0
   10.7200    6.5580   -3.5270 C   0  0  2  0  0  0  0  0  0  0  0  0
   10.9690    7.6020   -3.3390 H   0  0  0  0  0  0  0  0  0  0  0  0
   11.6250    5.7190   -2.6400 C   0  0  0  0  0  3  0  0  0  0  0  0
   12.2670    6.2920   -1.7970 O   0  0  0  0  0  0  0  0  0  0  0  0
    9.2040    6.4100   -3.1540 C   0  0  0  0  0  0  0  0  0  0  0  0
    8.6640    7.2090   -3.6620 H   0  0  0  0  0  0  0  0  0  0  0  0
    8.8680    5.4460   -3.5360 H   0  0  0  0  0  0  0  0  0  0  0  0
    8.8060    6.4750   -1.6050 C   0  0  0  0  0  0  0  0  0  0  0  0
    9.0730    5.5270   -1.1380 H   0  0  0  0  0  0  0  0  0  0  0  0
    9.3690    7.2810   -1.1350 H   0  0  0  0  0  0  0  0  0  0  0  0
    7.2710    6.7340   -1.3710 C   0  0  0  0  0  0  0  0  0  0  0  0
    6.9860    6.4380   -0.3620 H   0  0  0  0  0  0  0  0  0  0  0  0
    6.6770    6.1740   -2.0940 H   0  0  0  0  0  0  0  0  0  0  0  0
    7.0740    8.1750   -1.5550 N   0  0  0  0  0  0  0  0  0  0  0  0
    7.9010    8.7810   -1.3810 H   0  0  0  0  0  0  0  0  0  0  0  0
    5.9530    8.7950   -1.9200 C   0  0  0  0  0  0  0  0  0  0  0  0
    4.8300    8.1290   -2.1550 N   0  0  0  0  0  4  0  0  0  0  0  0
    4.8090    7.0940   -2.0560 H   0  0  0  0  0  0  0  0  0  0  0  0
    3.9710    8.6420   -2.4390 H   0  0  0  0  0  0  0  0  0  0  0  0
    5.9750   10.1110   -2.0680 N   0  0  0  0  0  0  0  0  0  0  0  0
    6.8550   10.6390   -1.9000 H   0  0  0  0  0  0  0  0  0  0  0  0
    5.1120   10.6170   -2.3520 H   0  0  0  0  0  0  0  0  0  0  0  0
   11.6800   13.6970    2.1500 N   0  0  0  0  0  2  0  0  0  0  0  0
   11.0060   14.3750    1.7400 H   0  0  0  0  0  0  0  0  0  0  0  0
   12.3750   12.7460    1.2760 C   0  0  2  0  0  0  0  0  0  0  0  0
   12.5890   11.8420    1.8460 H   0  0  0  0  0  0  0  0  0  0  0  0
   13.6730   13.4000    0.7880 C   0  0  0  0  0  3  0  0  0  0  0  0
   13.6690   14.3550    0.0170 O   0  0  0  0  0  0  0  0  0  0  0  0
   11.5200   12.3200    0.0890 C   0  0  0  0  0  0  0  0  0  0  0  0
   11.3570   13.1990   -0.5350 H   0  0  0  0  0  0  0  0  0  0  0  0
   12.0810   11.5750   -0.4740 H   0  0  0  0  0  0  0  0  0  0  0  0
   10.1640   11.7270    0.4160 C   0  0  0  0  0  0  0  0  0  0  0  0
   10.0310   10.3500    0.7370 C   0  0  0  0  0  0  0  0  0  0  0  0
   10.9170    9.7150    0.7680 H   0  0  0  0  0  0  0  0  0  0  0  0
    9.0060   12.5450    0.3790 C   0  0  0  0  0  0  0  0  0  0  0  0
    9.1020   13.6000    0.1210 H   0  0  0  0  0  0  0  0  0  0  0  0
    8.7740    9.8000    1.0140 C   0  0  0  0  0  0  0  0  0  0  0  0
    8.6750    8.7420    1.2580 H   0  0  0  0  0  0  0  0  0  0  0  0
    7.7410   12.0170    0.6690 C   0  0  0  0  0  0  0  0  0  0  0  0
    6.8570   12.6550    0.6610 H   0  0  0  0  0  0  0  0  0  0  0  0
    7.6340   10.6360    0.9730 C   0  0  0  0  0  0  0  0  0  0  0  0
    6.3730   10.1120    1.2340 O   0  0  0  0  0  0  0  0  0  0  0  0
    6.4530    9.1450    1.4290 H   0  0  0  0  0  0  0  0  0  0  0  0
    6.8140   13.4770   -8.2220 H   0  0  0  0  0  0  0  0  0  0  0  0
   -8.7350    4.5970   -6.3320 H   0  0  0  0  0  0  0  0  0  0  0  0
  1  2  1  0
  1  3  1  0
  3  4  1  6
  3  5  1  0
  3  7  1  0
  5  6  2  0
  7  8  1  0
  7  9  1  0
  7 10  1  0
 10 11  2  0
 10 12  1  0
 12250  1  0
 13 14  1  0
 13 15  1  0
 15 16  1  6
 15 17  1  0
 15 19  1  0
 17 18  2  0
 17 24  1  0
 19 20  1  0
 19 21  1  0
 19 22  1  0
 22 23  1  0
 24 25  1  0
 24 26  1  0
 26 27  1  1
 26 28  1  0
 26 30  1  0
 28 29  2  0
 28 35  1  0
 30 31  1  0
 30 32  1  0
 30 33  1  0
 33 34  1  0
 35 36  1  0
 35 37  1  0
 37 38  1  6
 37 39  1  0
 37 41  1  0
 39 40  2  0
 41 42  1  0
 41 43  1  0
 41 44  1  0
 44 45  2  0
 44 47  1  0
 45 46  1  0
 45 49  1  0
 47 48  1  0
 47 51  2  0
 49 50  1  0
 49 53  2  0
 51 52  1  0
 51 53  1  0
 53 54  1  0
 55 56  1  0
 55 57  1  0
 57 58  1  6
 57 59  1  0
 57 61  1  0
 59 60  2  0
 61 62  1  0
 61 63  1  0
 61 67  1  0
 63 64  1  0
 63 65  1  0
 63 66  1  0
 67 68  1  0
 67 69  1  0
 67 70  1  0
 71 72  1  0
 71 73  1  0
 73 74  1  1
 73 75  1  0
 73 77  1  0
 75 76  2  0
 77 78  1  6
 77 79  1  0
 77 82  1  0
 79 80  1  0
 79 81  1  0
 79 86  1  0
 82 83  1  0
 82 84  1  0
 82 85  1  0
 86 87  1  0
 86 88  1  0
 86 89  1  0
 90 91  1  0
 90 92  1  0
 92 93  1  6
 92 94  1  0
 92 96  1  0
 94 95  2  0
 96 97  1  0
 96 98  1  0
 96 99  1  0
 99100  1  0
 99101  2  0
100103  2  0
101102  1  0
101105  1  0
103104  1  0
103105  1  0
105251  1  0
106107  1  0
106108  1  0
108109  1  1
108110  1  0
108112  1  0
110111  2  0
112113  1  0
112114  1  0
112118  1  0
114115  1  0
114116  1  0
114117  1  0
118119  1  0
118120  1  0
118121  1  0
122123  1  0
122124  1  0
124125  1  1
124126  1  0
124128  1  0
126127  2  0
126132  1  0
128129  1  0
128130  1  0
128131  1  0
132133  1  0
132134  1  0
134135  1  1
134136  1  0
134138  1  0
136137  2  0
136143  1  0
138139  1  0
138140  1  0
138141  1  0
141142  1  0
143144  1  0
143145  1  0
145146  1  1
145147  1  0
145149  1  0
147148  2  0
149150  1  0
149151  1  0
149152  1  0
152153  1  0
152154  1  0
152158  1  0
154155  1  0
154156  1  0
154157  1  0
158159  1  0
158160  1  0
158161  1  0
162163  1  0
162164  1  0
164165  1  6
164166  1  0
164168  1  0
166167  2  0
166184  1  0
168169  1  0
168170  1  0
168171  1  0
171172  1  0
171173  1  0
171174  1  0
174175  1  0
174176  1  0
174177  1  0
177178  1  0
177179  1  0
177180  1  0
180181  1  0
180182  1  0
180183  1  0
184185  1  0
184186  1  0
186187  1  6
186188  1  0
186190  1  0
188189  2  0
190191  1  0
190192  1  0
190193  1  0
193194  2  0
193196  1  0
194195  1  0
194198  1  0
196197  1  0
196200  2  0
198199  1  0
198202  2  0
200201  1  0
200202  1  0
202203  1  0
203204  1  0
205206  1  0
205207  1  0
207208  1  6
207209  1  0
207211  1  0
209210  2  0
211212  1  0
211213  1  0
211214  1  0
214215  1  0
214216  1  0
214217  1  0
217218  1  0
217219  1  0
217220  1  0
220221  1  0
220222  1  0
222223  2  0
222226  1  0
223224  1  0
223225  1  0
226227  1  0
226228  1  0
229230  1  0
229231  1  0
231232  1  1
231233  1  0
231235  1  0
233234  2  0
235236  1  0
235237  1  0
235238  1  0
238239  2  0
238241  1  0
239240  1  0
239243  1  0
241242  1  0
241245  2  0
243244  1  0
243247  2  0
245246  1  0
245247  1  0
247248  1  0
248249  1  0
M  RAD  8   1   2   5   2  13   2  39   2  55   2  59   2  71   2  75   2
M  RAD  8  90   2  94   2 106   2 110   2 122   2 147   2 162   2 188   2
M  CHG  2 180   1 223   1
M  RAD  4 205   2 209   2 229   2 233   2
M  END
$$$$

     RDKit          3D

251245  0  0  0  0  0  0  0  0999 V2000
    8.2390   15.7430  -10.2460 N   0  0  0  0  0  2  0  0  0  0  0  0
    8.4060   14.8450   -9.7480 H   0  0  0  0  0  0  0  0  0  0  0  0
    7.1270   16.5820   -9.8330 C   0  0  2  0  0  0  0  0  0  0  0  0
    6.5240   16.7530  -10.7240 H   0  0  0  0  0  0  0  0  0  0  0  0
    7.5010   17.9630   -9.3590 C   0  0  0  0  0  3  0  0  0  0  0  0
    8.3130   18.1090   -8.4540 O   0  0  0  0  0  0  0  0  0  0  0  0
    6.3630   15.8620   -8.7680 C   0  0  0  0  0  0  0  0  0  0  0  0
    7.0440   15.5910   -7.9610 H   0  0  0  0  0  0  0  0  0  0  0  0
    5.5850   16.5200   -8.3800 H   0  0  0  0  0  0  0  0  0  0  0  0
    5.7360   14.6350   -9.3040 C   0  0  0  0  0  0  0  0  0  0  0  0
    4.8520   14.7920  -10.1880 O   0  0  0  0  0  0  0  0  0  0  0  0
    6.1520   13.5130   -8.8840 O   0  0  0  0  0  0  0  0  0  0  0  0
    1.6580   16.8130  -11.9920 N   0  0  0  0  0  2  0  0  0  0  0  0
    2.3630   16.6600  -11.2430 H   0  0  0  0  0  0  0  0  0  0  0  0
    0.5750   15.8710  -12.1280 C   0  0  2  0  0  0  0  0  0  0  0  0
    0.1290   15.9910  -13.1150 H   0  0  0  0  0  0  0  0  0  0  0  0
   -0.5220   16.1130  -11.1130 C   0  0  0  0  0  0  0  0  0  0  0  0
   -0.2990   16.7340  -10.0760 O   0  0  0  0  0  0  0  0  0  0  0  0
    1.1300   14.4960  -11.9520 C   0  0  0  0  0  0  0  0  0  0  0  0
    0.3140   13.7740  -11.9180 H   0  0  0  0  0  0  0  0  0  0  0  0
    1.6970   14.4460  -11.0220 H   0  0  0  0  0  0  0  0  0  0  0  0
    1.9940   14.1960  -13.0610 O   0  0  0  0  0  0  0  0  0  0  0  0
    2.3660   13.2850  -12.9510 H   0  0  0  0  0  0  0  0  0  0  0  0
   -1.7070   15.5990  -11.3820 N   0  0  0  0  0  0  0  0  0  0  0  0
   -1.8300   15.0390  -12.2500 H   0  0  0  0  0  0  0  0  0  0  0  0
   -2.8500   15.7940  -10.4960 C   0  0  2  0  0  0  0  0  0  0  0  0
   -2.4940   15.6940   -9.4710 H   0  0  0  0  0  0  0  0  0  0  0  0
   -3.9360   14.7420  -10.7100 C   0  0  0  0  0  0  0  0  0  0  0  0
   -4.1170   14.2150  -11.8220 O   0  0  0  0  0  0  0  0  0  0  0  0
   -3.4310   17.1680  -10.7260 C   0  0  0  0  0  0  0  0  0  0  0  0
   -3.6970   17.2780  -11.7770 H   0  0  0  0  0  0  0  0  0  0  0  0
   -2.6920   17.9230  -10.4590 H   0  0  0  0  0  0  0  0  0  0  0  0
   -4.5930   17.3400   -9.9250 O   0  0  0  0  0  0  0  0  0  0  0  0
   -4.9690   18.2430  -10.0800 H   0  0  0  0  0  0  0  0  0  0  0  0
   -4.6520   14.4140   -9.6350 N   0  0  0  0  0  0  0  0  0  0  0  0
   -4.3590   14.7920   -8.7110 H   0  0  0  0  0  0  0  0  0  0  0  0
   -5.8320   13.5460   -9.6910 C   0  0  2  0  0  0  0  0  0  0  0  0
   -5.6450   12.7780  -10.4420 H   0  0  0  0  0  0  0  0  0  0  0  0
   -7.0770   14.3290  -10.1220 C   0  0  0  0  0  3  0  0  0  0  0  0
   -8.0250   13.7390  -10.5890 O   0  0  0  0  0  0  0  0  0  0  0  0
   -6.0610   12.8570   -8.3570 C   0  0  0  0  0  0  0  0  0  0  0  0
   -5.9730   13.6020   -7.5670 H   0  0  0  0  0  0  0  0  0  0  0  0
   -7.0700   12.4440   -8.3540 H   0  0  0  0  0  0  0  0  0  0  0  0
   -5.0730   11.7210   -8.0610 C   0  0  0  0  0  0  0  0  0  0  0  0
   -4.0720   11.8810   -7.1020 C   0  0  0  0  0  0  0  0  0  0  0  0
   -3.9860   12.8270   -6.5670 H   0  0  0  0  0  0  0  0  0  0  0  0
   -5.1740   10.4980   -8.7080 C   0  0  0  0  0  0  0  0  0  0  0  0
   -5.9560   10.3530   -9.4530 H   0  0  0  0  0  0  0  0  0  0  0  0
   -3.1820   10.8480   -6.8190 C   0  0  0  0  0  0  0  0  0  0  0  0
   -2.4060   10.9870   -6.0660 H   0  0  0  0  0  0  0  0  0  0  0  0
   -4.2920    9.4420   -8.4250 C   0  0  0  0  0  0  0  0  0  0  0  0
   -4.4060    8.4830   -8.9310 H   0  0  0  0  0  0  0  0  0  0  0  0
   -3.2860    9.6220   -7.5080 C   0  0  0  0  0  0  0  0  0  0  0  0
   -2.5720    8.8220   -7.3140 H   0  0  0  0  0  0  0  0  0  0  0  0
   -3.3140    5.0230  -13.0570 N   0  0  0  0  0  2  0  0  0  0  0  0
   -4.1400    5.6150  -12.8370 H   0  0  0  0  0  0  0  0  0  0  0  0
   -2.5170    4.4610  -11.9940 C   0  0  2  0  0  0  0  0  0  0  0  0
   -1.7250    3.8470  -12.4230 H   0  0  0  0  0  0  0  0  0  0  0  0
   -3.4380    3.6400  -11.1070 C   0  0  0  0  0  3  0  0  0  0  0  0
   -4.4710    4.1900  -10.6370 O   0  0  0  0  0  0  0  0  0  0  0  0
   -1.8540    5.5840  -11.1350 C   0  0  0  0  0  0  0  0  0  0  0  0
   -2.6490    6.2450  -10.7900 H   0  0  0  0  0  0  0  0  0  0  0  0
   -1.1450    4.9970   -9.9330 C   0  0  0  0  0  0  0  0  0  0  0  0
   -1.8650    4.4610   -9.3150 H   0  0  0  0  0  0  0  0  0  0  0  0
   -0.3700    4.3090  -10.2700 H   0  0  0  0  0  0  0  0  0  0  0  0
   -0.6920    5.8000   -9.3520 H   0  0  0  0  0  0  0  0  0  0  0  0
   -0.8790    6.3820  -11.9530 C   0  0  0  0  0  0  0  0  0  0  0  0
   -0.0980    5.7220  -12.3300 H   0  0  0  0  0  0  0  0  0  0  0  0
   -1.4020    6.8440  -12.7900 H   0  0  0  0  0  0  0  0  0  0  0  0
   -0.4320    7.1570  -11.3300 H   0  0  0  0  0  0  0  0  0  0  0  0
   -4.5210    2.0210   -7.7850 N   0  0  0  0  0  2  0  0  0  0  0  0
   -5.4600    2.1270   -8.2190 H   0  0  0  0  0  0  0  0  0  0  0  0
   -4.3760    2.2860   -6.3400 C   0  0  2  0  0  0  0  0  0  0  0  0
   -3.3700    1.9630   -6.0710 H   0  0  0  0  0  0  0  0  0  0  0  0
   -5.3740    1.4700   -5.5200 C   0  0  0  0  0  3  0  0  0  0  0  0
   -6.6090    1.7400   -5.5300 O   0  0  0  0  0  0  0  0  0  0  0  0
   -4.4620    3.8040   -5.9870 C   0  0  2  0  0  0  0  0  0  0  0  0
   -5.4400    4.1780   -6.2900 H   0  0  0  0  0  0  0  0  0  0  0  0
   -3.3750    4.5860   -6.7450 C   0  0  0  0  0  0  0  0  0  0  0  0
   -2.4260    4.4330   -6.2310 H   0  0  0  0  0  0  0  0  0  0  0  0
   -3.3090    4.1820   -7.7550 H   0  0  0  0  0  0  0  0  0  0  0  0
   -4.3050    4.0130   -4.4580 C   0  0  0  0  0  0  0  0  0  0  0  0
   -5.1000    3.4810   -3.9360 H   0  0  0  0  0  0  0  0  0  0  0  0
   -3.3370    3.6280   -4.1370 H   0  0  0  0  0  0  0  0  0  0  0  0
   -4.3670    5.0770   -4.2300 H   0  0  0  0  0  0  0  0  0  0  0  0
   -3.6210    6.0930   -6.8510 C   0  0  0  0  0  0  0  0  0  0  0  0
   -4.5590    6.2710   -7.3760 H   0  0  0  0  0  0  0  0  0  0  0  0
   -3.6760    6.5220   -5.8510 H   0  0  0  0  0  0  0  0  0  0  0  0
   -2.8020    6.5560   -7.4010 H   0  0  0  0  0  0  0  0  0  0  0  0
   -7.1030    4.9550  -11.2140 N   0  0  0  0  0  2  0  0  0  0  0  0
   -6.1220    4.6450  -11.0650 H   0  0  0  0  0  0  0  0  0  0  0  0
   -7.3690    6.3930  -11.2260 C   0  0  2  0  0  0  0  0  0  0  0  0
   -8.4260    6.5500  -11.4390 H   0  0  0  0  0  0  0  0  0  0  0  0
   -6.5510    7.1110  -12.3230 C   0  0  0  0  0  3  0  0  0  0  0  0
   -5.3670    6.8340  -12.4820 O   0  0  0  0  0  0  0  0  0  0  0  0
   -6.9990    6.9690   -9.8590 C   0  0  0  0  0  0  0  0  0  0  0  0
   -5.9460    6.7590   -9.6690 H   0  0  0  0  0  0  0  0  0  0  0  0
   -7.1550    8.0480   -9.8840 H   0  0  0  0  0  0  0  0  0  0  0  0
   -7.8100    6.3970   -8.7320 C   0  0  0  0  0  0  0  0  0  0  0  0
   -9.1120    6.7880   -8.4820 N   0  0  0  0  0  0  0  0  0  0  0  0
   -7.5200    5.4300   -7.8250 C   0  0  0  0  0  0  0  0  0  0  0  0
   -6.5730    4.9000   -7.7210 H   0  0  0  0  0  0  0  0  0  0  0  0
   -9.5840    6.0790   -7.4730 C   0  0  0  0  0  0  0  0  0  0  0  0
  -10.5840    6.1660   -7.0470 H   0  0  0  0  0  0  0  0  0  0  0  0
   -8.6430    5.2470   -7.0660 N   0  0  0  0  0  0  0  0  0  0  0  0
   -4.3430    9.9870  -13.8600 N   0  0  0  0  0  2  0  0  0  0  0  0
   -3.9430    9.2670  -14.4950 H   0  0  0  0  0  0  0  0  0  0  0  0
   -3.4660   11.0950  -13.4060 C   0  0  2  0  0  0  0  0  0  0  0  0
   -3.9980   11.6020  -12.6010 H   0  0  0  0  0  0  0  0  0  0  0  0
   -3.1980   12.0700  -14.5610 C   0  0  0  0  0  3  0  0  0  0  0  0
   -2.6940   11.6660  -15.6100 O   0  0  0  0  0  0  0  0  0  0  0  0
   -2.1230   10.5980  -12.8370 C   0  0  0  0  0  0  0  0  0  0  0  0
   -1.6160   10.0380  -13.6230 H   0  0  0  0  0  0  0  0  0  0  0  0
   -1.2160   11.7770  -12.4230 C   0  0  0  0  0  0  0  0  0  0  0  0
   -1.0140   12.4010  -13.2930 H   0  0  0  0  0  0  0  0  0  0  0  0
   -1.7190   12.3690  -11.6580 H   0  0  0  0  0  0  0  0  0  0  0  0
   -0.2780   11.3900  -12.0260 H   0  0  0  0  0  0  0  0  0  0  0  0
   -2.3600    9.6900  -11.6480 C   0  0  0  0  0  0  0  0  0  0  0  0
   -2.8940   10.2400  -10.8730 H   0  0  0  0  0  0  0  0  0  0  0  0
   -2.9540    8.8310  -11.9610 H   0  0  0  0  0  0  0  0  0  0  0  0
   -1.4020    9.3470  -11.2570 H   0  0  0  0  0  0  0  0  0  0  0  0
   10.6540   11.3050   -5.5760 N   0  0  0  0  0  2  0  0  0  0  0  0
   10.3920   12.2850   -5.8030 H   0  0  0  0  0  0  0  0  0  0  0  0
   10.0940   10.6720   -4.3490 C   0  0  2  0  0  0  0  0  0  0  0  0
   10.8680    9.9920   -3.9930 H   0  0  0  0  0  0  0  0  0  0  0  0
    8.8430    9.8410   -4.6350 C   0  0  0  0  0  0  0  0  0  0  0  0
    8.3760    9.1070   -3.7350 O   0  0  0  0  0  0  0  0  0  0  0  0
    9.8210   11.6790   -3.2540 C   0  0  0  0  0  0  0  0  0  0  0  0
   10.7510   12.1790   -2.9810 H   0  0  0  0  0  0  0  0  0  0  0  0
    9.1020   12.4160   -3.6110 H   0  0  0  0  0  0  0  0  0  0  0  0
    9.4140   11.1650   -2.3830 H   0  0  0  0  0  0  0  0  0  0  0  0
    8.3280    9.9240   -5.8760 N   0  0  0  0  0  0  0  0  0  0  0  0
    8.8050   10.5390   -6.5650 H   0  0  0  0  0  0  0  0  0  0  0  0
    7.1420    9.2010   -6.3060 C   0  0  2  0  0  0  0  0  0  0  0  0
    6.4000    9.3360   -5.5190 H   0  0  0  0  0  0  0  0  0  0  0  0
    7.4250    7.7530   -6.4980 C   0  0  0  0  0  0  0  0  0  0  0  0
    8.5700    7.2700   -6.4620 O   0  0  0  0  0  0  0  0  0  0  0  0
    6.6180    9.7450   -7.6390 C   0  0  0  0  0  0  0  0  0  0  0  0
    5.6190    9.3460   -7.8150 H   0  0  0  0  0  0  0  0  0  0  0  0
    7.2840    9.4210   -8.4390 H   0  0  0  0  0  0  0  0  0  0  0  0
    6.5530   11.1910   -7.6390 O   0  0  0  0  0  0  0  0  0  0  0  0
    6.2110   11.5050   -8.5140 H   0  0  0  0  0  0  0  0  0  0  0  0
    6.3550    7.0580   -6.8100 N   0  0  0  0  0  0  0  0  0  0  0  0
    5.4610    7.5640   -6.9720 H   0  0  0  0  0  0  0  0  0  0  0  0
    6.3700    5.6400   -6.9350 C   0  0  2  0  0  0  0  0  0  0  0  0
    7.1620    5.1570   -6.3640 H   0  0  0  0  0  0  0  0  0  0  0  0
    6.5790    5.3360   -8.4090 C   0  0  0  0  0  3  0  0  0  0  0  0
    6.0940    6.0730   -9.2600 O   0  0  0  0  0  0  0  0  0  0  0  0
    5.0220    5.1190   -6.4090 C   0  0  0  0  0  0  0  0  0  0  0  0
    4.2350    5.7010   -6.8870 H   0  0  0  0  0  0  0  0  0  0  0  0
    4.9330    4.0750   -6.7090 H   0  0  0  0  0  0  0  0  0  0  0  0
    4.7900    5.1880   -4.8740 C   0  0  0  0  0  0  0  0  0  0  0  0
    5.0100    6.2120   -4.5710 H   0  0  0  0  0  0  0  0  0  0  0  0
    3.3110    4.7880   -4.5700 C   0  0  0  0  0  0  0  0  0  0  0  0
    2.6380    5.4790   -5.0770 H   0  0  0  0  0  0  0  0  0  0  0  0
    3.1300    3.7740   -4.9260 H   0  0  0  0  0  0  0  0  0  0  0  0
    3.1370    4.8330   -3.4950 H   0  0  0  0  0  0  0  0  0  0  0  0
    5.7270    4.2640   -4.0560 C   0  0  0  0  0  0  0  0  0  0  0  0
    5.5710    3.2290   -4.3610 H   0  0  0  0  0  0  0  0  0  0  0  0
    6.7640    4.5460   -4.2400 H   0  0  0  0  0  0  0  0  0  0  0  0
    5.5030    4.3690   -2.9940 H   0  0  0  0  0  0  0  0  0  0  0  0
    5.3050    3.2970  -10.3550 N   0  0  0  0  0  2  0  0  0  0  0  0
    5.3190    3.2100   -9.3190 H   0  0  0  0  0  0  0  0  0  0  0  0
    4.1120    2.9140  -11.0930 C   0  0  2  0  0  0  0  0  0  0  0  0
    4.3770    2.2010  -11.8730 H   0  0  0  0  0  0  0  0  0  0  0  0
    3.5250    4.1710  -11.7290 C   0  0  0  0  0  0  0  0  0  0  0  0
    2.8290    4.0740  -12.7370 O   0  0  0  0  0  0  0  0  0  0  0  0
    3.0890    2.1810  -10.2000 C   0  0  0  0  0  0  0  0  0  0  0  0
    2.2390    1.8870  -10.8160 H   0  0  0  0  0  0  0  0  0  0  0  0
    3.5630    1.2900   -9.7890 H   0  0  0  0  0  0  0  0  0  0  0  0
    2.5850    3.0260   -9.0590 C   0  0  0  0  0  0  0  0  0  0  0  0
    3.2850    2.9380   -8.2280 H   0  0  0  0  0  0  0  0  0  0  0  0
    2.5440    4.0640   -9.3890 H   0  0  0  0  0  0  0  0  0  0  0  0
    1.2080    2.6210   -8.5730 C   0  0  0  0  0  0  0  0  0  0  0  0
    0.7530    3.4710   -8.0650 H   0  0  0  0  0  0  0  0  0  0  0  0
    0.6000    2.3470   -9.4350 H   0  0  0  0  0  0  0  0  0  0  0  0
    1.2480    1.4500   -7.6160 C   0  0  0  0  0  0  0  0  0  0  0  0
    2.1300    1.5540   -6.9850 H   0  0  0  0  0  0  0  0  0  0  0  0
    1.3270    0.5330   -8.2000 H   0  0  0  0  0  0  0  0  0  0  0  0
    0.0220    1.3380   -6.7120 N   0  0  0  0  0  4  0  0  0  0  0  0
   -0.0630    2.2000   -6.1370 H   0  0  0  0  0  0  0  0  0  0  0  0
   -0.8300    1.2250   -7.2980 H   0  0  0  0  0  0  0  0  0  0  0  0
    0.1270    0.5130   -6.0880 H   0  0  0  0  0  0  0  0  0  0  0  0
    3.8150    5.3320  -11.1570 N   0  0  0  0  0  0  0  0  0  0  0  0
    4.3440    5.3460  -10.2620 H   0  0  0  0  0  0  0  0  0  0  0  0
    3.4060    6.5700  -11.7600 C   0  0  2  0  0  0  0  0  0  0  0  0
    2.6010    6.3500  -12.4610 H   0  0  0  0  0  0  0  0  0  0  0  0
    4.5830    7.2000  -12.5340 C   0  0  0  0  0  3  0  0  0  0  0  0
    4.3900    7.6850  -13.6440 O   0  0  0  0  0  0  0  0  0  0  0  0
    2.8330    7.5740  -10.6990 C   0  0  0  0  0  0  0  0  0  0  0  0
    1.7520    7.4410  -10.6510 H   0  0  0  0  0  0  0  0  0  0  0  0
    3.2710    7.3350   -9.7300 H   0  0  0  0  0  0  0  0  0  0  0  0
    3.1220    9.0400  -11.0060 C   0  0  0  0  0  0  0  0  0  0  0  0
    2.4190    9.6990  -11.9770 C   0  0  0  0  0  0  0  0  0  0  0  0
    1.6340    9.1740  -12.5200 H   0  0  0  0  0  0  0  0  0  0  0  0
    4.1580    9.7400  -10.3510 C   0  0  0  0  0  0  0  0  0  0  0  0
    4.7460    9.2230   -9.5930 H   0  0  0  0  0  0  0  0  0  0  0  0
    2.7000   11.0760  -12.2930 C   0  0  0  0  0  0  0  0  0  0  0  0
    2.1060   11.5870  -13.0510 H   0  0  0  0  0  0  0  0  0  0  0  0
    4.4620   11.1120  -10.6520 C   0  0  0  0  0  0  0  0  0  0  0  0
    5.2550   11.6380  -10.1200 H   0  0  0  0  0  0  0  0  0  0  0  0
    3.7150   11.7570  -11.6450 C   0  0  0  0  0  0  0  0  0  0  0  0
    3.9630   13.0750  -12.0290 O   0  0  0  0  0  0  0  0  0  0  0  0
    3.3260   13.3360  -12.7410 H   0  0  0  0  0  0  0  0  0  0  0  0
   10.9780    6.3050   -4.9480 N   0  0  0  0  0  2  0  0  0  0  0  0
   10.1880    5.9880   -5.5450 H   0  0  0  0  0  0  0  0  0  0  0  0
   10.7200    6.5580   -3.5270 C   0  0  2  0  0  0  0  0  0  0  0  0
   10.9690    7.6020   -3.3390 H   0  0  0  0  0  0  0  0  0  0  0  0
   11.6250    5.7190   -2.6400 C   0  0  0  0  0  3  0  0  0  0  0  0
   12.2670    6.2920   -1.7970 O   0  0  0  0  0  0  0  0  0  0  0  0
    9.2040    6.4100   -3.1540 C   0  0  0  0  0  0  0  0  0  0  0  0
    8.6640    7.2090   -3.6620 H   0  0  0  0  0  0  0  0  0  0  0  0
    8.8680    5.4460   -3.5360 H   0  0  0  0  0  0  0  0  0  0  0  0
    8.8060    6.4750   -1.6050 C   0  0  0  0  0  0  0  0  0  0  0  0
    9.0730    5.5270   -1.1380 H   0  0  0  0  0  0  0  0  0  0  0  0
    9.3690    7.2810   -1.1350 H   0  0  0  0  0  0  0  0  0  0  0  0
    7.2710    6.7340   -1.3710 C   0  0  0  0  0  0  0  0  0  0  0  0
    6.9860    6.4380   -0.3620 H   0  0  0  0  0  0  0  0  0  0  0  0
    6.6770    6.1740   -2.0940 H   0  0  0  0  0  0  0  0  0  0  0  0
    7.0740    8.1750   -1.5550 N   0  0  0  0  0  0  0  0  0  0  0  0
    7.9010    8.7810   -1.3810 H   0  0  0  0  0  0  0  0  0  0  0  0
    5.9530    8.7950   -1.9200 C   0  0  0  0  0  0  0  0  0  0  0  0
    4.8300    8.1290   -2.1550 N   0  0  0  0  0  4  0  0  0  0  0  0
    4.8090    7.0940   -2.0560 H   0  0  0  0  0  0  0  0  0  0  0  0
    3.9710    8.6420   -2.4390 H   0  0  0  0  0  0  0  0  0  0  0  0
    5.9750   10.1110   -2.0680 N   0  0  0  0  0  0  0  0  0  0  0  0
    6.8550   10.6390   -1.9000 H   0  0  0  0  0  0  0  0  0  0  0  0
    5.1120   10.6170   -2.3520 H   0  0  0  0  0  0  0  0  0  0  0  0
   11.6800   13.6970    2.1500 N   0  0  0  0  0  2  0  0  0  0  0  0
   11.0060   14.3750    1.7400 H   0  0  0  0  0  0  0  0  0  0  0  0
   12.3750   12.7460    1.2760 C   0  0  2  0  0  0  0  0  0  0  0  0
   12.5890   11.8420    1.8460 H   0  0  0  0  0  0  0  0  0  0  0  0
   13.6730   13.4000    0.7880 C   0  0  0  0  0  3  0  0  0  0  0  0
   13.6690   14.3550    0.0170 O   0  0  0  0  0  0  0  0  0  0  0  0
   11.5200   12.3200    0.0890 C   0  0  0  0  0  0  0  0  0  0  0  0
   11.3570   13.1990   -0.5350 H   0  0  0  0  0  0  0  0  0  0  0  0
   12.0810   11.5750   -0.4740 H   0  0  0  0  0  0  0  0  0  0  0  0
   10.1640   11.7270    0.4160 C   0  0  0  0  0  0  0  0  0  0  0  0
   10.0310   10.3500    0.7370 C   0  0  0  0  0  0  0  0  0  0  0  0
   10.9170    9.7150    0.7680 H   0  0  0  0  0  0  0  0  0  0  0  0
    9.0060   12.5450    0.3790 C   0  0  0  0  0  0  0  0  0  0  0  0
    9.1020   13.6000    0.1210 H   0  0  0  0  0  0  0  0  0  0  0  0
    8.7740    9.8000    1.0140 C   0  0  0  0  0  0  0  0  0  0  0  0
    8.6750    8.7420    1.2580 H   0  0  0  0  0  0  0  0  0  0  0  0
    7.7410   12.0170    0.6690 C   0  0  0  0  0  0  0  0  0  0  0  0
    6.8570   12.6550    0.6610 H   0  0  0  0  0  0  0  0  0  0  0  0
    7.6340   10.6360    0.9730 C   0  0  0  0  0  0  0  0  0  0  0  0
    6.3730   10.1120    1.2340 O   0  0  0  0  0  0  0  0  0  0  0  0
    6.4530    9.1450    1.4290 H   0  0  0  0  0  0  0  0  0  0  0  0
    6.8140   13.4770   -8.2220 H   0  0  0  0  0  0  0  0  0  0  0  0
   -8.7350    4.5970   -6.3320 H   0  0  0  0  0  0  0  0  0  0  0  0
  1  2  1  0
  1  3  1  0
  3  4  1  6
  3  5  1  0
  3  7  1  0
  5  6  2  0
  7  8  1  0
  7  9  1  0
  7 10  1  0
 10 11  2  0
 10 12  1  0
 12250  1  0
 13 14  1  0
 13 15  1  0
 15 16  1  6
 15 17  1  0
 15 19  1  0
 17 18  2  0
 17 24  1  0
 19 20  1  0
 19 21  1  0
 19 22  1  0
 22 23  1  0
 24 25  1  0
 24 26  1  0
 26 27  1  1
 26 28  1  0
 26 30  1  0
 28 29  2  0
 28 35  1  0
 30 31  1  0
 30 32  1  0
 30 33  1  0
 33 34  1  0
 35 36  1  0
 35 37  1  0
 37 38  1  6
 37 39  1  0
 37 41  1  0
 39 40  2  0
 41 42  1  0
 41 43  1  0
 41 44  1  0
 44 45  2  0
 44 47  1  0
 45 46  1  0
 45 49  1  0
 47 48  1  0
 47 51  2  0
 49 50  1  0
 49 53  2  0
 51 52  1  0
 51 53  1  0
 53 54  1  0
 55 56  1  0
 55 57  1  0
 57 58  1  6
 57 59  1  0
 57 61  1  0
 59 60  2  0
 61 62  1  0
 61 63  1  0
 61 67  1  0
 63 64  1  0
 63 65  1  0
 63 66  1  0
 67 68  1  0
 67 69  1  0
 67 70  1  0
 71 72  1  0
 71 73  1  0
 73 74  1  1
 73 75  1  0
 73 77  1  0
 75 76  2  0
 77 78  1  6
 77 79  1  0
 77 82  1  0
 79 80  1  0
 79 81  1  0
 79 86  1  0
 82 83  1  0
 82 84  1  0
 82 85  1  0
 86 87  1  0
 86 88  1  0
 86 89  1  0
 90 91  1  0
 90 92  1  0
 92 93  1  6
 92 94  1  0
 92 96  1  0
 94 95  2  0
 96 97  1  0
 96 98  1  0
 96 99  1  0
 99100  1  0
 99101  2  0
100103  2  0
101102  1  0
101105  1  0
103104  1  0
103105  1  0
105251  1  0
106107  1  0
106108  1  0
108109  1  1
108110  1  0
108112  1  0
110111  2  0
112113  1  0
112114  1  0
112118  1  0
114115  1  0
114116  1  0
114117  1  0
118119  1  0
118120  1  0
118121  1  0
122123  1  0
122124  1  0
124125  1  1
124126  1  0
124128  1  0
126127  2  0
126132  1  0
128129  1  0
128130  1  0
128131  1  0
132133  1  0
132134  1  0
134135  1  1
134136  1  0
134138  1  0
136137  2  0
136143  1  0
138139  1  0
138140  1  0
138141  1  0
141142  1  0
143144  1  0
143145  1  0
145146  1  1
145147  1  0
145149  1  0
147148  2  0
149150  1  0
149151  1  0
149152  1  0
152153  1  0
152154  1  0
152158  1  0
154155  1  0
154156  1  0
154157  1  0
158159  1  0
158160  1  0
158161  1  0
162163  1  0
162164  1  0
164165  1  6
164166  1  0
164168  1  0
166167  2  0
166184  1  0
168169  1  0
168170  1  0
168171  1  0
171172  1  0
171173  1  0
171174  1  0
174175  1  0
174176  1  0
174177  1  0
177178  1  0
177179  1  0
177180  1  0
180181  1  0
180182  1  0
180183  1  0
184185  1  0
184186  1  0
186187  1  6
186188  1  0
186190  1  0
188189  2  0
190191  1  0
190192  1  0
190193  1  0
193194  2  0
193196  1  0
194195  1  0
194198  1  0
196197  1  0
196200  2  0
198199  1  0
198202  2  0
200201  1  0
200202  1  0
202203  1  0
203204  1  0
205206  1  0
205207  1  0
207208  1  6
207209  1  0
207211  1  0
209210  2  0
211212  1  0
211213  1  0
211214  1  0
214215  1  0
214216  1  0
214217  1  0
217218  1  0
217219  1  0
217220  1  0
220221  1  0
220222  1  0
222223  2  0
222226  1  0
223224  1  0
223225  1  0
226227  1  0
226228  1  0
229230  1  0
229231  1  0
231232  1  1
231233  1  0
231235  1  0
233234  2  0
235236  1  0
235237  1  0
235238  1  0
238239  2  0
238241  1  0
239240  1  0
239243  1  0
241242  1  0
241245  2  0
243244  1  0
243247  2  0
245246  1  0
245247  1  0
247248  1  0
248249  1  0
M  RAD  8   1   2   5   2  13   2  39   2  55   2  59   2  71   2  75   2
M  RAD  8  90   2  94   2 106   2 110   2 122   2 147   2 162   2 188   2
M  CHG  2 180   1 223   1
M  RAD  4 205   2 209   2 229   2 233   2
M  END
$$$$

     RDKit          3D

251245  0  0  0  0  0  0  0  0999 V2000
    8.2390   15.7430  -10.2460 N   0  0  0  0  0  2  0  0  0  0  0  0
    8.4060   14.8450   -9.7480 H   0  0  0  0  0  0  0  0  0  0  0  0
    7.1270   16.5820   -9.8330 C   0  0  2  0  0  0  0  0  0  0  0  0
    6.5240   16.7530  -10.7240 H   0  0  0  0  0  0  0  0  0  0  0  0
    7.5010   17.9630   -9.3590 C   0  0  0  0  0  3  0  0  0  0  0  0
    8.3130   18.1090   -8.4540 O   0  0  0  0  0  0  0  0  0  0  0  0
    6.3630   15.8620   -8.7680 C   0  0  0  0  0  0  0  0  0  0  0  0
    7.0440   15.5910   -7.9610 H   0  0  0  0  0  0  0  0  0  0  0  0
    5.5850   16.5200   -8.3800 H   0  0  0  0  0  0  0  0  0  0  0  0
    5.7360   14.6350   -9.3040 C   0  0  0  0  0  0  0  0  0  0  0  0
    4.8520   14.7920  -10.1880 O   0  0  0  0  0  0  0  0  0  0  0  0
    6.1520   13.5130   -8.8840 O   0  0  0  0  0  0  0  0  0  0  0  0
    1.6580   16.8130  -11.9920 N   0  0  0  0  0  2  0  0  0  0  0  0
    2.3630   16.6600  -11.2430 H   0  0  0  0  0  0  0  0  0  0  0  0
    0.5750   15.8710  -12.1280 C   0  0  2  0  0  0  0  0  0  0  0  0
    0.1290   15.9910  -13.1150 H   0  0  0  0  0  0  0  0  0  0  0  0
   -0.5220   16.1130  -11.1130 C   0  0  0  0  0  0  0  0  0  0  0  0
   -0.2990   16.7340  -10.0760 O   0  0  0  0  0  0  0  0  0  0  0  0
    1.1300   14.4960  -11.9520 C   0  0  0  0  0  0  0  0  0  0  0  0
    0.3140   13.7740  -11.9180 H   0  0  0  0  0  0  0  0  0  0  0  0
    1.6970   14.4460  -11.0220 H   0  0  0  0  0  0  0  0  0  0  0  0
    1.9940   14.1960  -13.0610 O   0  0  0  0  0  0  0  0  0  0  0  0
    2.3660   13.2850  -12.9510 H   0  0  0  0  0  0  0  0  0  0  0  0
   -1.7070   15.5990  -11.3820 N   0  0  0  0  0  0  0  0  0  0  0  0
   -1.8300   15.0390  -12.2500 H   0  0  0  0  0  0  0  0  0  0  0  0
   -2.8500   15.7940  -10.4960 C   0  0  2  0  0  0  0  0  0  0  0  0
   -2.4940   15.6940   -9.4710 H   0  0  0  0  0  0  0  0  0  0  0  0
   -3.9360   14.7420  -10.7100 C   0  0  0  0  0  0  0  0  0  0  0  0
   -4.1170   14.2150  -11.8220 O   0  0  0  0  0  0  0  0  0  0  0  0
   -3.4310   17.1680  -10.7260 C   0  0  0  0  0  0  0  0  0  0  0  0
   -3.6970   17.2780  -11.7770 H   0  0  0  0  0  0  0  0  0  0  0  0
   -2.6920   17.9230  -10.4590 H   0  0  0  0  0  0  0  0  0  0  0  0
   -4.5930   17.3400   -9.9250 O   0  0  0  0  0  0  0  0  0  0  0  0
   -4.9690   18.2430  -10.0800 H   0  0  0  0  0  0  0  0  0  0  0  0
   -4.6520   14.4140   -9.6350 N   0  0  0  0  0  0  0  0  0  0  0  0
   -4.3590   14.7920   -8.7110 H   0  0  0  0  0  0  0  0  0  0  0  0
   -5.8320   13.5460   -9.6910 C   0  0  2  0  0  0  0  0  0  0  0  0
   -5.6450   12.7780  -10.4420 H   0  0  0  0  0  0  0  0  0  0  0  0
   -7.0770   14.3290  -10.1220 C   0  0  0  0  0  3  0  0  0  0  0  0
   -8.0250   13.7390  -10.5890 O   0  0  0  0  0  0  0  0  0  0  0  0
   -6.0610   12.8570   -8.3570 C   0  0  0  0  0  0  0  0  0  0  0  0
   -5.9730   13.6020   -7.5670 H   0  0  0  0  0  0  0  0  0  0  0  0
   -7.0700   12.4440   -8.3540 H   0  0  0  0  0  0  0  0  0  0  0  0
   -5.0730   11.7210   -8.0610 C   0  0  0  0  0  0  0  0  0  0  0  0
   -4.0720   11.8810   -7.1020 C   0  0  0  0  0  0  0  0  0  0  0  0
   -3.9860   12.8270   -6.5670 H   0  0  0  0  0  0  0  0  0  0  0  0
   -5.1740   10.4980   -8.7080 C   0  0  0  0  0  0  0  0  0  0  0  0
   -5.9560   10.3530   -9.4530 H   0  0  0  0  0  0  0  0  0  0  0  0
   -3.1820   10.8480   -6.8190 C   0  0  0  0  0  0  0  0  0  0  0  0
   -2.4060   10.9870   -6.0660 H   0  0  0  0  0  0  0  0  0  0  0  0
   -4.2920    9.4420   -8.4250 C   0  0  0  0  0  0  0  0  0  0  0  0
   -4.4060    8.4830   -8.9310 H   0  0  0  0  0  0  0  0  0  0  0  0
   -3.2860    9.6220   -7.5080 C   0  0  0  0  0  0  0  0  0  0  0  0
   -2.5720    8.8220   -7.3140 H   0  0  0  0  0  0  0  0  0  0  0  0
   -3.3140    5.0230  -13.0570 N   0  0  0  0  0  2  0  0  0  0  0  0
   -4.1400    5.6150  -12.8370 H   0  0  0  0  0  0  0  0  0  0  0  0
   -2.5170    4.4610  -11.9940 C   0  0  2  0  0  0  0  0  0  0  0  0
   -1.7250    3.8470  -12.4230 H   0  0  0  0  0  0  0  0  0  0  0  0
   -3.4380    3.6400  -11.1070 C   0  0  0  0  0  3  0  0  0  0  0  0
   -4.4710    4.1900  -10.6370 O   0  0  0  0  0  0  0  0  0  0  0  0
   -1.8540    5.5840  -11.1350 C   0  0  0  0  0  0  0  0  0  0  0  0
   -2.6490    6.2450  -10.7900 H   0  0  0  0  0  0  0  0  0  0  0  0
   -1.1450    4.9970   -9.9330 C   0  0  0  0  0  0  0  0  0  0  0  0
   -1.8650    4.4610   -9.3150 H   0  0  0  0  0  0  0  0  0  0  0  0
   -0.3700    4.3090  -10.2700 H   0  0  0  0  0  0  0  0  0  0  0  0
   -0.6920    5.8000   -9.3520 H   0  0  0  0  0  0  0  0  0  0  0  0
   -0.8790    6.3820  -11.9530 C   0  0  0  0  0  0  0  0  0  0  0  0
   -0.0980    5.7220  -12.3300 H   0  0  0  0  0  0  0  0  0  0  0  0
   -1.4020    6.8440  -12.7900 H   0  0  0  0  0  0  0  0  0  0  0  0
   -0.4320    7.1570  -11.3300 H   0  0  0  0  0  0  0  0  0  0  0  0
   -4.5210    2.0210   -7.7850 N   0  0  0  0  0  2  0  0  0  0  0  0
   -5.4600    2.1270   -8.2190 H   0  0  0  0  0  0  0  0  0  0  0  0
   -4.3760    2.2860   -6.3400 C   0  0  2  0  0  0  0  0  0  0  0  0
   -3.3700    1.9630   -6.0710 H   0  0  0  0  0  0  0  0  0  0  0  0
   -5.3740    1.4700   -5.5200 C   0  0  0  0  0  3  0  0  0  0  0  0
   -6.6090    1.7400   -5.5300 O   0  0  0  0  0  0  0  0  0  0  0  0
   -4.4620    3.8040   -5.9870 C   0  0  2  0  0  0  0  0  0  0  0  0
   -5.4400    4.1780   -6.2900 H   0  0  0  0  0  0  0  0  0  0  0  0
   -3.3750    4.5860   -6.7450 C   0  0  0  0  0  0  0  0  0  0  0  0
   -2.4260    4.4330   -6.2310 H   0  0  0  0  0  0  0  0  0  0  0  0
   -3.3090    4.1820   -7.7550 H   0  0  0  0  0  0  0  0  0  0  0  0
   -4.3050    4.0130   -4.4580 C   0  0  0  0  0  0  0  0  0  0  0  0
   -5.1000    3.4810   -3.9360 H   0  0  0  0  0  0  0  0  0  0  0  0
   -3.3370    3.6280   -4.1370 H   0  0  0  0  0  0  0  0  0  0  0  0
   -4.3670    5.0770   -4.2300 H   0  0  0  0  0  0  0  0  0  0  0  0
   -3.6210    6.0930   -6.8510 C   0  0  0  0  0  0  0  0  0  0  0  0
   -4.5590    6.2710   -7.3760 H   0  0  0  0  0  0  0  0  0  0  0  0
   -3.6760    6.5220   -5.8510 H   0  0  0  0  0  0  0  0  0  0  0  0
   -2.8020    6.5560   -7.4010 H   0  0  0  0  0  0  0  0  0  0  0  0
   -7.1030    4.9550  -11.2140 N   0  0  0  0  0  2  0  0  0  0  0  0
   -6.1220    4.6450  -11.0650 H   0  0  0  0  0  0  0  0  0  0  0  0
   -7.3690    6.3930  -11.2260 C   0  0  2  0  0  0  0  0  0  0  0  0
   -8.4260    6.5500  -11.4390 H   0  0  0  0  0  0  0  0  0  0  0  0
   -6.5510    7.1110  -12.3230 C   0  0  0  0  0  3  0  0  0  0  0  0
   -5.3670    6.8340  -12.4820 O   0  0  0  0  0  0  0  0  0  0  0  0
   -6.9990    6.9690   -9.8590 C   0  0  0  0  0  0  0  0  0  0  0  0
   -5.9460    6.7590   -9.6690 H   0  0  0  0  0  0  0  0  0  0  0  0
   -7.1550    8.0480   -9.8840 H   0  0  0  0  0  0  0  0  0  0  0  0
   -7.8100    6.3970   -8.7320 C   0  0  0  0  0  0  0  0  0  0  0  0
   -9.1120    6.7880   -8.4820 N   0  0  0  0  0  0  0  0  0  0  0  0
   -7.5200    5.4300   -7.8250 C   0  0  0  0  0  0  0  0  0  0  0  0
   -6.5730    4.9000   -7.7210 H   0  0  0  0  0  0  0  0  0  0  0  0
   -9.5840    6.0790   -7.4730 C   0  0  0  0  0  0  0  0  0  0  0  0
  -10.5840    6.1660   -7.0470 H   0  0  0  0  0  0  0  0  0  0  0  0
   -8.6430    5.2470   -7.0660 N   0  0  0  0  0  0  0  0  0  0  0  0
   -4.3430    9.9870  -13.8600 N   0  0  0  0  0  2  0  0  0  0  0  0
   -3.9430    9.2670  -14.4950 H   0  0  0  0  0  0  0  0  0  0  0  0
   -3.4660   11.0950  -13.4060 C   0  0  2  0  0  0  0  0  0  0  0  0
   -3.9980   11.6020  -12.6010 H   0  0  0  0  0  0  0  0  0  0  0  0
   -3.1980   12.0700  -14.5610 C   0  0  0  0  0  3  0  0  0  0  0  0
   -2.6940   11.6660  -15.6100 O   0  0  0  0  0  0  0  0  0  0  0  0
   -2.1230   10.5980  -12.8370 C   0  0  0  0  0  0  0  0  0  0  0  0
   -1.6160   10.0380  -13.6230 H   0  0  0  0  0  0  0  0  0  0  0  0
   -1.2160   11.7770  -12.4230 C   0  0  0  0  0  0  0  0  0  0  0  0
   -1.0140   12.4010  -13.2930 H   0  0  0  0  0  0  0  0  0  0  0  0
   -1.7190   12.3690  -11.6580 H   0  0  0  0  0  0  0  0  0  0  0  0
   -0.2780   11.3900  -12.0260 H   0  0  0  0  0  0  0  0  0  0  0  0
   -2.3600    9.6900  -11.6480 C   0  0  0  0  0  0  0  0  0  0  0  0
   -2.8940   10.2400  -10.8730 H   0  0  0  0  0  0  0  0  0  0  0  0
   -2.9540    8.8310  -11.9610 H   0  0  0  0  0  0  0  0  0  0  0  0
   -1.4020    9.3470  -11.2570 H   0  0  0  0  0  0  0  0  0  0  0  0
   10.6540   11.3050   -5.5760 N   0  0  0  0  0  2  0  0  0  0  0  0
   10.3920   12.2850   -5.8030 H   0  0  0  0  0  0  0  0  0  0  0  0
   10.0940   10.6720   -4.3490 C   0  0  2  0  0  0  0  0  0  0  0  0
   10.8680    9.9920   -3.9930 H   0  0  0  0  0  0  0  0  0  0  0  0
    8.8430    9.8410   -4.6350 C   0  0  0  0  0  0  0  0  0  0  0  0
    8.3760    9.1070   -3.7350 O   0  0  0  0  0  0  0  0  0  0  0  0
    9.8210   11.6790   -3.2540 C   0  0  0  0  0  0  0  0  0  0  0  0
   10.7510   12.1790   -2.9810 H   0  0  0  0  0  0  0  0  0  0  0  0
    9.1020   12.4160   -3.6110 H   0  0  0  0  0  0  0  0  0  0  0  0
    9.4140   11.1650   -2.3830 H   0  0  0  0  0  0  0  0  0  0  0  0
    8.3280    9.9240   -5.8760 N   0  0  0  0  0  0  0  0  0  0  0  0
    8.8050   10.5390   -6.5650 H   0  0  0  0  0  0  0  0  0  0  0  0
    7.1420    9.2010   -6.3060 C   0  0  2  0  0  0  0  0  0  0  0  0
    6.4000    9.3360   -5.5190 H   0  0  0  0  0  0  0  0  0  0  0  0
    7.4250    7.7530   -6.4980 C   0  0  0  0  0  0  0  0  0  0  0  0
    8.5700    7.2700   -6.4620 O   0  0  0  0  0  0  0  0  0  0  0  0
    6.6180    9.7450   -7.6390 C   0  0  0  0  0  0  0  0  0  0  0  0
    5.6190    9.3460   -7.8150 H   0  0  0  0  0  0  0  0  0  0  0  0
    7.2840    9.4210   -8.4390 H   0  0  0  0  0  0  0  0  0  0  0  0
    6.5530   11.1910   -7.6390 O   0  0  0  0  0  0  0  0  0  0  0  0
    6.2110   11.5050   -8.5140 H   0  0  0  0  0  0  0  0  0  0  0  0
    6.3550    7.0580   -6.8100 N   0  0  0  0  0  0  0  0  0  0  0  0
    5.4610    7.5640   -6.9720 H   0  0  0  0  0  0  0  0  0  0  0  0
    6.3700    5.6400   -6.9350 C   0  0  2  0  0  0  0  0  0  0  0  0
    7.1620    5.1570   -6.3640 H   0  0  0  0  0  0  0  0  0  0  0  0
    6.5790    5.3360   -8.4090 C   0  0  0  0  0  3  0  0  0  0  0  0
    6.0940    6.0730   -9.2600 O   0  0  0  0  0  0  0  0  0  0  0  0
    5.0220    5.1190   -6.4090 C   0  0  0  0  0  0  0  0  0  0  0  0
    4.2350    5.7010   -6.8870 H   0  0  0  0  0  0  0  0  0  0  0  0
    4.9330    4.0750   -6.7090 H   0  0  0  0  0  0  0  0  0  0  0  0
    4.7900    5.1880   -4.8740 C   0  0  0  0  0  0  0  0  0  0  0  0
    5.0100    6.2120   -4.5710 H   0  0  0  0  0  0  0  0  0  0  0  0
    3.3110    4.7880   -4.5700 C   0  0  0  0  0  0  0  0  0  0  0  0
    2.6380    5.4790   -5.0770 H   0  0  0  0  0  0  0  0  0  0  0  0
    3.1300    3.7740   -4.9260 H   0  0  0  0  0  0  0  0  0  0  0  0
    3.1370    4.8330   -3.4950 H   0  0  0  0  0  0  0  0  0  0  0  0
    5.7270    4.2640   -4.0560 C   0  0  0  0  0  0  0  0  0  0  0  0
    5.5710    3.2290   -4.3610 H   0  0  0  0  0  0  0  0  0  0  0  0
    6.7640    4.5460   -4.2400 H   0  0  0  0  0  0  0  0  0  0  0  0
    5.5030    4.3690   -2.9940 H   0  0  0  0  0  0  0  0  0  0  0  0
    5.3050    3.2970  -10.3550 N   0  0  0  0  0  2  0  0  0  0  0  0
    5.3190    3.2100   -9.3190 H   0  0  0  0  0  0  0  0  0  0  0  0
    4.1120    2.9140  -11.0930 C   0  0  2  0  0  0  0  0  0  0  0  0
    4.3770    2.2010  -11.8730 H   0  0  0  0  0  0  0  0  0  0  0  0
    3.5250    4.1710  -11.7290 C   0  0  0  0  0  0  0  0  0  0  0  0
    2.8290    4.0740  -12.7370 O   0  0  0  0  0  0  0  0  0  0  0  0
    3.0890    2.1810  -10.2000 C   0  0  0  0  0  0  0  0  0  0  0  0
    2.2390    1.8870  -10.8160 H   0  0  0  0  0  0  0  0  0  0  0  0
    3.5630    1.2900   -9.7890 H   0  0  0  0  0  0  0  0  0  0  0  0
    2.5850    3.0260   -9.0590 C   0  0  0  0  0  0  0  0  0  0  0  0
    3.2850    2.9380   -8.2280 H   0  0  0  0  0  0  0  0  0  0  0  0
    2.5440    4.0640   -9.3890 H   0  0  0  0  0  0  0  0  0  0  0  0
    1.2080    2.6210   -8.5730 C   0  0  0  0  0  0  0  0  0  0  0  0
    0.7530    3.4710   -8.0650 H   0  0  0  0  0  0  0  0  0  0  0  0
    0.6000    2.3470   -9.4350 H   0  0  0  0  0  0  0  0  0  0  0  0
    1.2480    1.4500   -7.6160 C   0  0  0  0  0  0  0  0  0  0  0  0
    2.1300    1.5540   -6.9850 H   0  0  0  0  0  0  0  0  0  0  0  0
    1.3270    0.5330   -8.2000 H   0  0  0  0  0  0  0  0  0  0  0  0
    0.0220    1.3380   -6.7120 N   0  0  0  0  0  4  0  0  0  0  0  0
   -0.0630    2.2000   -6.1370 H   0  0  0  0  0  0  0  0  0  0  0  0
   -0.8300    1.2250   -7.2980 H   0  0  0  0  0  0  0  0  0  0  0  0
    0.1270    0.5130   -6.0880 H   0  0  0  0  0  0  0  0  0  0  0  0
    3.8150    5.3320  -11.1570 N   0  0  0  0  0  0  0  0  0  0  0  0
    4.3440    5.3460  -10.2620 H   0  0  0  0  0  0  0  0  0  0  0  0
    3.4060    6.5700  -11.7600 C   0  0  2  0  0  0  0  0  0  0  0  0
    2.6010    6.3500  -12.4610 H   0  0  0  0  0  0  0  0  0  0  0  0
    4.5830    7.2000  -12.5340 C   0  0  0  0  0  3  0  0  0  0  0  0
    4.3900    7.6850  -13.6440 O   0  0  0  0  0  0  0  0  0  0  0  0
    2.8330    7.5740  -10.6990 C   0  0  0  0  0  0  0  0  0  0  0  0
    1.7520    7.4410  -10.6510 H   0  0  0  0  0  0  0  0  0  0  0  0
    3.2710    7.3350   -9.7300 H   0  0  0  0  0  0  0  0  0  0  0  0
    3.1220    9.0400  -11.0060 C   0  0  0  0  0  0  0  0  0  0  0  0
    2.4190    9.6990  -11.9770 C   0  0  0  0  0  0  0  0  0  0  0  0
    1.6340    9.1740  -12.5200 H   0  0  0  0  0  0  0  0  0  0  0  0
    4.1580    9.7400  -10.3510 C   0  0  0  0  0  0  0  0  0  0  0  0
    4.7460    9.2230   -9.5930 H   0  0  0  0  0  0  0  0  0  0  0  0
    2.7000   11.0760  -12.2930 C   0  0  0  0  0  0  0  0  0  0  0  0
    2.1060   11.5870  -13.0510 H   0  0  0  0  0  0  0  0  0  0  0  0
    4.4620   11.1120  -10.6520 C   0  0  0  0  0  0  0  0  0  0  0  0
    5.2550   11.6380  -10.1200 H   0  0  0  0  0  0  0  0  0  0  0  0
    3.7150   11.7570  -11.6450 C   0  0  0  0  0  0  0  0  0  0  0  0
    3.9630   13.0750  -12.0290 O   0  0  0  0  0  0  0  0  0  0  0  0
    3.3260   13.3360  -12.7410 H   0  0  0  0  0  0  0  0  0  0  0  0
   10.9780    6.3050   -4.9480 N   0  0  0  0  0  2  0  0  0  0  0  0
   10.1880    5.9880   -5.5450 H   0  0  0  0  0  0  0  0  0  0  0  0
   10.7200    6.5580   -3.5270 C   0  0  2  0  0  0  0  0  0  0  0  0
   10.9690    7.6020   -3.3390 H   0  0  0  0  0  0  0  0  0  0  0  0
   11.6250    5.7190   -2.6400 C   0  0  0  0  0  3  0  0  0  0  0  0
   12.2670    6.2920   -1.7970 O   0  0  0  0  0  0  0  0  0  0  0  0
    9.2040    6.4100   -3.1540 C   0  0  0  0  0  0  0  0  0  0  0  0
    8.6640    7.2090   -3.6620 H   0  0  0  0  0  0  0  0  0  0  0  0
    8.8680    5.4460   -3.5360 H   0  0  0  0  0  0  0  0  0  0  0  0
    8.8060    6.4750   -1.6050 C   0  0  0  0  0  0  0  0  0  0  0  0
    9.0730    5.5270   -1.1380 H   0  0  0  0  0  0  0  0  0  0  0  0
    9.3690    7.2810   -1.1350 H   0  0  0  0  0  0  0  0  0  0  0  0
    7.2710    6.7340   -1.3710 C   0  0  0  0  0  0  0  0  0  0  0  0
    6.9860    6.4380   -0.3620 H   0  0  0  0  0  0  0  0  0  0  0  0
    6.6770    6.1740   -2.0940 H   0  0  0  0  0  0  0  0  0  0  0  0
    7.0740    8.1750   -1.5550 N   0  0  0  0  0  0  0  0  0  0  0  0
    7.9010    8.7810   -1.3810 H   0  0  0  0  0  0  0  0  0  0  0  0
    5.9530    8.7950   -1.9200 C   0  0  0  0  0  0  0  0  0  0  0  0
    4.8300    8.1290   -2.1550 N   0  0  0  0  0  4  0  0  0  0  0  0
    4.8090    7.0940   -2.0560 H   0  0  0  0  0  0  0  0  0  0  0  0
    3.9710    8.6420   -2.4390 H   0  0  0  0  0  0  0  0  0  0  0  0
    5.9750   10.1110   -2.0680 N   0  0  0  0  0  0  0  0  0  0  0  0
    6.8550   10.6390   -1.9000 H   0  0  0  0  0  0  0  0  0  0  0  0
    5.1120   10.6170   -2.3520 H   0  0  0  0  0  0  0  0  0  0  0  0
   11.6800   13.6970    2.1500 N   0  0  0  0  0  2  0  0  0  0  0  0
   11.0060   14.3750    1.7400 H   0  0  0  0  0  0  0  0  0  0  0  0
   12.3750   12.7460    1.2760 C   0  0  2  0  0  0  0  0  0  0  0  0
   12.5890   11.8420    1.8460 H   0  0  0  0  0  0  0  0  0  0  0  0
   13.6730   13.4000    0.7880 C   0  0  0  0  0  3  0  0  0  0  0  0
   13.6690   14.3550    0.0170 O   0  0  0  0  0  0  0  0  0  0  0  0
   11.5200   12.3200    0.0890 C   0  0  0  0  0  0  0  0  0  0  0  0
   11.3570   13.1990   -0.5350 H   0  0  0  0  0  0  0  0  0  0  0  0
   12.0810   11.5750   -0.4740 H   0  0  0  0  0  0  0  0  0  0  0  0
   10.1640   11.7270    0.4160 C   0  0  0  0  0  0  0  0  0  0  0  0
   10.0310   10.3500    0.7370 C   0  0  0  0  0  0  0  0  0  0  0  0
   10.9170    9.7150    0.7680 H   0  0  0  0  0  0  0  0  0  0  0  0
    9.0060   12.5450    0.3790 C   0  0  0  0  0  0  0  0  0  0  0  0
    9.1020   13.6000    0.1210 H   0  0  0  0  0  0  0  0  0  0  0  0
    8.7740    9.8000    1.0140 C   0  0  0  0  0  0  0  0  0  0  0  0
    8.6750    8.7420    1.2580 H   0  0  0  0  0  0  0  0  0  0  0  0
    7.7410   12.0170    0.6690 C   0  0  0  0  0  0  0  0  0  0  0  0
    6.8570   12.6550    0.6610 H   0  0  0  0  0  0  0  0  0  0  0  0
    7.6340   10.6360    0.9730 C   0  0  0  0  0  0  0  0  0  0  0  0
    6.3730   10.1120    1.2340 O   0  0  0  0  0  0  0  0  0  0  0  0
    6.4530    9.1450    1.4290 H   0  0  0  0  0  0  0  0  0  0  0  0
    6.8140   13.4770   -8.2220 H   0  0  0  0  0  0  0  0  0  0  0  0
   -8.7350    4.5970   -6.3320 H   0  0  0  0  0  0  0  0  0  0  0  0
  1  2  1  0
  1  3  1  0
  3  4  1  6
  3  5  1  0
  3  7  1  0
  5  6  2  0
  7  8  1  0
  7  9  1  0
  7 10  1  0
 10 11  2  0
 10 12  1  0
 12250  1  0
 13 14  1  0
 13 15  1  0
 15 16  1  6
 15 17  1  0
 15 19  1  0
 17 18  2  0
 17 24  1  0
 19 20  1  0
 19 21  1  0
 19 22  1  0
 22 23  1  0
 24 25  1  0
 24 26  1  0
 26 27  1  1
 26 28  1  0
 26 30  1  0
 28 29  2  0
 28 35  1  0
 30 31  1  0
 30 32  1  0
 30 33  1  0
 33 34  1  0
 35 36  1  0
 35 37  1  0
 37 38  1  6
 37 39  1  0
 37 41  1  0
 39 40  2  0
 41 42  1  0
 41 43  1  0
 41 44  1  0
 44 45  2  0
 44 47  1  0
 45 46  1  0
 45 49  1  0
 47 48  1  0
 47 51  2  0
 49 50  1  0
 49 53  2  0
 51 52  1  0
 51 53  1  0
 53 54  1  0
 55 56  1  0
 55 57  1  0
 57 58  1  6
 57 59  1  0
 57 61  1  0
 59 60  2  0
 61 62  1  0
 61 63  1  0
 61 67  1  0
 63 64  1  0
 63 65  1  0
 63 66  1  0
 67 68  1  0
 67 69  1  0
 67 70  1  0
 71 72  1  0
 71 73  1  0
 73 74  1  1
 73 75  1  0
 73 77  1  0
 75 76  2  0
 77 78  1  6
 77 79  1  0
 77 82  1  0
 79 80  1  0
 79 81  1  0
 79 86  1  0
 82 83  1  0
 82 84  1  0
 82 85  1  0
 86 87  1  0
 86 88  1  0
 86 89  1  0
 90 91  1  0
 90 92  1  0
 92 93  1  6
 92 94  1  0
 92 96  1  0
 94 95  2  0
 96 97  1  0
 96 98  1  0
 96 99  1  0
 99100  1  0
 99101  2  0
100103  2  0
101102  1  0
101105  1  0
103104  1  0
103105  1  0
105251  1  0
106107  1  0
106108  1  0
108109  1  1
108110  1  0
108112  1  0
110111  2  0
112113  1  0
112114  1  0
112118  1  0
114115  1  0
114116  1  0
114117  1  0
118119  1  0
118120  1  0
118121  1  0
122123  1  0
122124  1  0
124125  1  1
124126  1  0
124128  1  0
126127  2  0
126132  1  0
128129  1  0
128130  1  0
128131  1  0
132133  1  0
132134  1  0
134135  1  1
134136  1  0
134138  1  0
136137  2  0
136143  1  0
138139  1  0
138140  1  0
138141  1  0
141142  1  0
143144  1  0
143145  1  0
145146  1  1
145147  1  0
145149  1  0
147148  2  0
149150  1  0
149151  1  0
149152  1  0
152153  1  0
152154  1  0
152158  1  0
154155  1  0
154156  1  0
154157  1  0
158159  1  0
158160  1  0
158161  1  0
162163  1  0
162164  1  0
164165  1  6
164166  1  0
164168  1  0
166167  2  0
166184  1  0
168169  1  0
168170  1  0
168171  1  0
171172  1  0
171173  1  0
171174  1  0
174175  1  0
174176  1  0
174177  1  0
177178  1  0
177179  1  0
177180  1  0
180181  1  0
180182  1  0
180183  1  0
184185  1  0
184186  1  0
186187  1  6
186188  1  0
186190  1  0
188189  2  0
190191  1  0
190192  1  0
190193  1  0
193194  2  0
193196  1  0
194195  1  0
194198  1  0
196197  1  0
196200  2  0
198199  1  0
198202  2  0
200201  1  0
200202  1  0
202203  1  0
203204  1  0
205206  1  0
205207  1  0
207208  1  6
207209  1  0
207211  1  0
209210  2  0
211212  1  0
211213  1  0
211214  1  0
214215  1  0
214216  1  0
214217  1  0
217218  1  0
217219  1  0
217220  1  0
220221  1  0
220222  1  0
222223  2  0
222226  1  0
223224  1  0
223225  1  0
226227  1  0
226228  1  0
229230  1  0
229231  1  0
231232  1  1
231233  1  0
231235  1  0
233234  2  0
235236  1  0
235237  1  0
235238  1  0
238239  2  0
238241  1  0
239240  1  0
239243  1  0
241242  1  0
241245  2  0
243244  1  0
243247  2  0
245246  1  0
245247  1  0
247248  1  0
248249  1  0
M  RAD  8   1   2   5   2  13   2  39   2  55   2  59   2  71   2  75   2
M  RAD  8  90   2  94   2 106   2 110   2 122   2 147   2 162   2 188   2
M  CHG  2 180   1 223   1
M  RAD  4 205   2 209   2 229   2 233   2
M  END
$$$$

     RDKit          3D

251245  0  0  0  0  0  0  0  0999 V2000
    8.2390   15.7430  -10.2460 N   0  0  0  0  0  2  0  0  0  0  0  0
    8.4060   14.8450   -9.7480 H   0  0  0  0  0  0  0  0  0  0  0  0
    7.1270   16.5820   -9.8330 C   0  0  2  0  0  0  0  0  0  0  0  0
    6.5240   16.7530  -10.7240 H   0  0  0  0  0  0  0  0  0  0  0  0
    7.5010   17.9630   -9.3590 C   0  0  0  0  0  3  0  0  0  0  0  0
    8.3130   18.1090   -8.4540 O   0  0  0  0  0  0  0  0  0  0  0  0
    6.3630   15.8620   -8.7680 C   0  0  0  0  0  0  0  0  0  0  0  0
    7.0440   15.5910   -7.9610 H   0  0  0  0  0  0  0  0  0  0  0  0
    5.5850   16.5200   -8.3800 H   0  0  0  0  0  0  0  0  0  0  0  0
    5.7360   14.6350   -9.3040 C   0  0  0  0  0  0  0  0  0  0  0  0
    4.8520   14.7920  -10.1880 O   0  0  0  0  0  0  0  0  0  0  0  0
    6.1520   13.5130   -8.8840 O   0  0  0  0  0  0  0  0  0  0  0  0
    1.6580   16.8130  -11.9920 N   0  0  0  0  0  2  0  0  0  0  0  0
    2.3630   16.6600  -11.2430 H   0  0  0  0  0  0  0  0  0  0  0  0
    0.5750   15.8710  -12.1280 C   0  0  2  0  0  0  0  0  0  0  0  0
    0.1290   15.9910  -13.1150 H   0  0  0  0  0  0  0  0  0  0  0  0
   -0.5220   16.1130  -11.1130 C   0  0  0  0  0  0  0  0  0  0  0  0
   -0.2990   16.7340  -10.0760 O   0  0  0  0  0  0  0  0  0  0  0  0
    1.1300   14.4960  -11.9520 C   0  0  0  0  0  0  0  0  0  0  0  0
    0.3140   13.7740  -11.9180 H   0  0  0  0  0  0  0  0  0  0  0  0
    1.6970   14.4460  -11.0220 H   0  0  0  0  0  0  0  0  0  0  0  0
    1.9940   14.1960  -13.0610 O   0  0  0  0  0  0  0  0  0  0  0  0
    2.3660   13.2850  -12.9510 H   0  0  0  0  0  0  0  0  0  0  0  0
   -1.7070   15.5990  -11.3820 N   0  0  0  0  0  0  0  0  0  0  0  0
   -1.8300   15.0390  -12.2500 H   0  0  0  0  0  0  0  0  0  0  0  0
   -2.8500   15.7940  -10.4960 C   0  0  2  0  0  0  0  0  0  0  0  0
   -2.4940   15.6940   -9.4710 H   0  0  0  0  0  0  0  0  0  0  0  0
   -3.9360   14.7420  -10.7100 C   0  0  0  0  0  0  0  0  0  0  0  0
   -4.1170   14.2150  -11.8220 O   0  0  0  0  0  0  0  0  0  0  0  0
   -3.4310   17.1680  -10.7260 C   0  0  0  0  0  0  0  0  0  0  0  0
   -3.6970   17.2780  -11.7770 H   0  0  0  0  0  0  0  0  0  0  0  0
   -2.6920   17.9230  -10.4590 H   0  0  0  0  0  0  0  0  0  0  0  0
   -4.5930   17.3400   -9.9250 O   0  0  0  0  0  0  0  0  0  0  0  0
   -4.9690   18.2430  -10.0800 H   0  0  0  0  0  0  0  0  0  0  0  0
   -4.6520   14.4140   -9.6350 N   0  0  0  0  0  0  0  0  0  0  0  0
   -4.3590   14.7920   -8.7110 H   0  0  0  0  0  0  0  0  0  0  0  0
   -5.8320   13.5460   -9.6910 C   0  0  2  0  0  0  0  0  0  0  0  0
   -5.6450   12.7780  -10.4420 H   0  0  0  0  0  0  0  0  0  0  0  0
   -7.0770   14.3290  -10.1220 C   0  0  0  0  0  3  0  0  0  0  0  0
   -8.0250   13.7390  -10.5890 O   0  0  0  0  0  0  0  0  0  0  0  0
   -6.0610   12.8570   -8.3570 C   0  0  0  0  0  0  0  0  0  0  0  0
   -5.9730   13.6020   -7.5670 H   0  0  0  0  0  0  0  0  0  0  0  0
   -7.0700   12.4440   -8.3540 H   0  0  0  0  0  0  0  0  0  0  0  0
   -5.0730   11.7210   -8.0610 C   0  0  0  0  0  0  0  0  0  0  0  0
   -4.0720   11.8810   -7.1020 C   0  0  0  0  0  0  0  0  0  0  0  0
   -3.9860   12.8270   -6.5670 H   0  0  0  0  0  0  0  0  0  0  0  0
   -5.1740   10.4980   -8.7080 C   0  0  0  0  0  0  0  0  0  0  0  0
   -5.9560   10.3530   -9.4530 H   0  0  0  0  0  0  0  0  0  0  0  0
   -3.1820   10.8480   -6.8190 C   0  0  0  0  0  0  0  0  0  0  0  0
   -2.4060   10.9870   -6.0660 H   0  0  0  0  0  0  0  0  0  0  0  0
   -4.2920    9.4420   -8.4250 C   0  0  0  0  0  0  0  0  0  0  0  0
   -4.4060    8.4830   -8.9310 H   0  0  0  0  0  0  0  0  0  0  0  0
   -3.2860    9.6220   -7.5080 C   0  0  0  0  0  0  0  0  0  0  0  0
   -2.5720    8.8220   -7.3140 H   0  0  0  0  0  0  0  0  0  0  0  0
   -3.3140    5.0230  -13.0570 N   0  0  0  0  0  2  0  0  0  0  0  0
   -4.1400    5.6150  -12.8370 H   0  0  0  0  0  0  0  0  0  0  0  0
   -2.5170    4.4610  -11.9940 C   0  0  2  0  0  0  0  0  0  0  0  0
   -1.7250    3.8470  -12.4230 H   0  0  0  0  0  0  0  0  0  0  0  0
   -3.4380    3.6400  -11.1070 C   0  0  0  0  0  3  0  0  0  0  0  0
   -4.4710    4.1900  -10.6370 O   0  0  0  0  0  0  0  0  0  0  0  0
   -1.8540    5.5840  -11.1350 C   0  0  0  0  0  0  0  0  0  0  0  0
   -2.6490    6.2450  -10.7900 H   0  0  0  0  0  0  0  0  0  0  0  0
   -1.1450    4.9970   -9.9330 C   0  0  0  0  0  0  0  0  0  0  0  0
   -1.8650    4.4610   -9.3150 H   0  0  0  0  0  0  0  0  0  0  0  0
   -0.3700    4.3090  -10.2700 H   0  0  0  0  0  0  0  0  0  0  0  0
   -0.6920    5.8000   -9.3520 H   0  0  0  0  0  0  0  0  0  0  0  0
   -0.8790    6.3820  -11.9530 C   0  0  0  0  0  0  0  0  0  0  0  0
   -0.0980    5.7220  -12.3300 H   0  0  0  0  0  0  0  0  0  0  0  0
   -1.4020    6.8440  -12.7900 H   0  0  0  0  0  0  0  0  0  0  0  0
   -0.4320    7.1570  -11.3300 H   0  0  0  0  0  0  0  0  0  0  0  0
   -4.5210    2.0210   -7.7850 N   0  0  0  0  0  2  0  0  0  0  0  0
   -5.4600    2.1270   -8.2190 H   0  0  0  0  0  0  0  0  0  0  0  0
   -4.3760    2.2860   -6.3400 C   0  0  2  0  0  0  0  0  0  0  0  0
   -3.3700    1.9630   -6.0710 H   0  0  0  0  0  0  0  0  0  0  0  0
   -5.3740    1.4700   -5.5200 C   0  0  0  0  0  3  0  0  0  0  0  0
   -6.6090    1.7400   -5.5300 O   0  0  0  0  0  0  0  0  0  0  0  0
   -4.4620    3.8040   -5.9870 C   0  0  2  0  0  0  0  0  0  0  0  0
   -5.4400    4.1780   -6.2900 H   0  0  0  0  0  0  0  0  0  0  0  0
   -3.3750    4.5860   -6.7450 C   0  0  0  0  0  0  0  0  0  0  0  0
   -2.4260    4.4330   -6.2310 H   0  0  0  0  0  0  0  0  0  0  0  0
   -3.3090    4.1820   -7.7550 H   0  0  0  0  0  0  0  0  0  0  0  0
   -4.3050    4.0130   -4.4580 C   0  0  0  0  0  0  0  0  0  0  0  0
   -5.1000    3.4810   -3.9360 H   0  0  0  0  0  0  0  0  0  0  0  0
   -3.3370    3.6280   -4.1370 H   0  0  0  0  0  0  0  0  0  0  0  0
   -4.3670    5.0770   -4.2300 H   0  0  0  0  0  0  0  0  0  0  0  0
   -3.6210    6.0930   -6.8510 C   0  0  0  0  0  0  0  0  0  0  0  0
   -4.5590    6.2710   -7.3760 H   0  0  0  0  0  0  0  0  0  0  0  0
   -3.6760    6.5220   -5.8510 H   0  0  0  0  0  0  0  0  0  0  0  0
   -2.8020    6.5560   -7.4010 H   0  0  0  0  0  0  0  0  0  0  0  0
   -7.1030    4.9550  -11.2140 N   0  0  0  0  0  2  0  0  0  0  0  0
   -6.1220    4.6450  -11.0650 H   0  0  0  0  0  0  0  0  0  0  0  0
   -7.3690    6.3930  -11.2260 C   0  0  2  0  0  0  0  0  0  0  0  0
   -8.4260    6.5500  -11.4390 H   0  0  0  0  0  0  0  0  0  0  0  0
   -6.5510    7.1110  -12.3230 C   0  0  0  0  0  3  0  0  0  0  0  0
   -5.3670    6.8340  -12.4820 O   0  0  0  0  0  0  0  0  0  0  0  0
   -6.9990    6.9690   -9.8590 C   0  0  0  0  0  0  0  0  0  0  0  0
   -5.9460    6.7590   -9.6690 H   0  0  0  0  0  0  0  0  0  0  0  0
   -7.1550    8.0480   -9.8840 H   0  0  0  0  0  0  0  0  0  0  0  0
   -7.8100    6.3970   -8.7320 C   0  0  0  0  0  0  0  0  0  0  0  0
   -9.1120    6.7880   -8.4820 N   0  0  0  0  0  0  0  0  0  0  0  0
   -7.5200    5.4300   -7.8250 C   0  0  0  0  0  0  0  0  0  0  0  0
   -6.5730    4.9000   -7.7210 H   0  0  0  0  0  0  0  0  0  0  0  0
   -9.5840    6.0790   -7.4730 C   0  0  0  0  0  0  0  0  0  0  0  0
  -10.5840    6.1660   -7.0470 H   0  0  0  0  0  0  0  0  0  0  0  0
   -8.6430    5.2470   -7.0660 N   0  0  0  0  0  0  0  0  0  0  0  0
   -4.3430    9.9870  -13.8600 N   0  0  0  0  0  2  0  0  0  0  0  0
   -3.9430    9.2670  -14.4950 H   0  0  0  0  0  0  0  0  0  0  0  0
   -3.4660   11.0950  -13.4060 C   0  0  2  0  0  0  0  0  0  0  0  0
   -3.9980   11.6020  -12.6010 H   0  0  0  0  0  0  0  0  0  0  0  0
   -3.1980   12.0700  -14.5610 C   0  0  0  0  0  3  0  0  0  0  0  0
   -2.6940   11.6660  -15.6100 O   0  0  0  0  0  0  0  0  0  0  0  0
   -2.1230   10.5980  -12.8370 C   0  0  0  0  0  0  0  0  0  0  0  0
   -1.6160   10.0380  -13.6230 H   0  0  0  0  0  0  0  0  0  0  0  0
   -1.2160   11.7770  -12.4230 C   0  0  0  0  0  0  0  0  0  0  0  0
   -1.0140   12.4010  -13.2930 H   0  0  0  0  0  0  0  0  0  0  0  0
   -1.7190   12.3690  -11.6580 H   0  0  0  0  0  0  0  0  0  0  0  0
   -0.2780   11.3900  -12.0260 H   0  0  0  0  0  0  0  0  0  0  0  0
   -2.3600    9.6900  -11.6480 C   0  0  0  0  0  0  0  0  0  0  0  0
   -2.8940   10.2400  -10.8730 H   0  0  0  0  0  0  0  0  0  0  0  0
   -2.9540    8.8310  -11.9610 H   0  0  0  0  0  0  0  0  0  0  0  0
   -1.4020    9.3470  -11.2570 H   0  0  0  0  0  0  0  0  0  0  0  0
   10.6540   11.3050   -5.5760 N   0  0  0  0  0  2  0  0  0  0  0  0
   10.3920   12.2850   -5.8030 H   0  0  0  0  0  0  0  0  0  0  0  0
   10.0940   10.6720   -4.3490 C   0  0  2  0  0  0  0  0  0  0  0  0
   10.8680    9.9920   -3.9930 H   0  0  0  0  0  0  0  0  0  0  0  0
    8.8430    9.8410   -4.6350 C   0  0  0  0  0  0  0  0  0  0  0  0
    8.3760    9.1070   -3.7350 O   0  0  0  0  0  0  0  0  0  0  0  0
    9.8210   11.6790   -3.2540 C   0  0  0  0  0  0  0  0  0  0  0  0
   10.7510   12.1790   -2.9810 H   0  0  0  0  0  0  0  0  0  0  0  0
    9.1020   12.4160   -3.6110 H   0  0  0  0  0  0  0  0  0  0  0  0
    9.4140   11.1650   -2.3830 H   0  0  0  0  0  0  0  0  0  0  0  0
    8.3280    9.9240   -5.8760 N   0  0  0  0  0  0  0  0  0  0  0  0
    8.8050   10.5390   -6.5650 H   0  0  0  0  0  0  0  0  0  0  0  0
    7.1420    9.2010   -6.3060 C   0  0  2  0  0  0  0  0  0  0  0  0
    6.4000    9.3360   -5.5190 H   0  0  0  0  0  0  0  0  0  0  0  0
    7.4250    7.7530   -6.4980 C   0  0  0  0  0  0  0  0  0  0  0  0
    8.5700    7.2700   -6.4620 O   0  0  0  0  0  0  0  0  0  0  0  0
    6.6180    9.7450   -7.6390 C   0  0  0  0  0  0  0  0  0  0  0  0
    5.6190    9.3460   -7.8150 H   0  0  0  0  0  0  0  0  0  0  0  0
    7.2840    9.4210   -8.4390 H   0  0  0  0  0  0  0  0  0  0  0  0
    6.5530   11.1910   -7.6390 O   0  0  0  0  0  0  0  0  0  0  0  0
    6.2110   11.5050   -8.5140 H   0  0  0  0  0  0  0  0  0  0  0  0
    6.3550    7.0580   -6.8100 N   0  0  0  0  0  0  0  0  0  0  0  0
    5.4610    7.5640   -6.9720 H   0  0  0  0  0  0  0  0  0  0  0  0
    6.3700    5.6400   -6.9350 C   0  0  2  0  0  0  0  0  0  0  0  0
    7.1620    5.1570   -6.3640 H   0  0  0  0  0  0  0  0  0  0  0  0
    6.5790    5.3360   -8.4090 C   0  0  0  0  0  3  0  0  0  0  0  0
    6.0940    6.0730   -9.2600 O   0  0  0  0  0  0  0  0  0  0  0  0
    5.0220    5.1190   -6.4090 C   0  0  0  0  0  0  0  0  0  0  0  0
    4.2350    5.7010   -6.8870 H   0  0  0  0  0  0  0  0  0  0  0  0
    4.9330    4.0750   -6.7090 H   0  0  0  0  0  0  0  0  0  0  0  0
    4.7900    5.1880   -4.8740 C   0  0  0  0  0  0  0  0  0  0  0  0
    5.0100    6.2120   -4.5710 H   0  0  0  0  0  0  0  0  0  0  0  0
    3.3110    4.7880   -4.5700 C   0  0  0  0  0  0  0  0  0  0  0  0
    2.6380    5.4790   -5.0770 H   0  0  0  0  0  0  0  0  0  0  0  0
    3.1300    3.7740   -4.9260 H   0  0  0  0  0  0  0  0  0  0  0  0
    3.1370    4.8330   -3.4950 H   0  0  0  0  0  0  0  0  0  0  0  0
    5.7270    4.2640   -4.0560 C   0  0  0  0  0  0  0  0  0  0  0  0
    5.5710    3.2290   -4.3610 H   0  0  0  0  0  0  0  0  0  0  0  0
    6.7640    4.5460   -4.2400 H   0  0  0  0  0  0  0  0  0  0  0  0
    5.5030    4.3690   -2.9940 H   0  0  0  0  0  0  0  0  0  0  0  0
    5.3050    3.2970  -10.3550 N   0  0  0  0  0  2  0  0  0  0  0  0
    5.3190    3.2100   -9.3190 H   0  0  0  0  0  0  0  0  0  0  0  0
    4.1120    2.9140  -11.0930 C   0  0  2  0  0  0  0  0  0  0  0  0
    4.3770    2.2010  -11.8730 H   0  0  0  0  0  0  0  0  0  0  0  0
    3.5250    4.1710  -11.7290 C   0  0  0  0  0  0  0  0  0  0  0  0
    2.8290    4.0740  -12.7370 O   0  0  0  0  0  0  0  0  0  0  0  0
    3.0890    2.1810  -10.2000 C   0  0  0  0  0  0  0  0  0  0  0  0
    2.2390    1.8870  -10.8160 H   0  0  0  0  0  0  0  0  0  0  0  0
    3.5630    1.2900   -9.7890 H   0  0  0  0  0  0  0  0  0  0  0  0
    2.5850    3.0260   -9.0590 C   0  0  0  0  0  0  0  0  0  0  0  0
    3.2850    2.9380   -8.2280 H   0  0  0  0  0  0  0  0  0  0  0  0
    2.5440    4.0640   -9.3890 H   0  0  0  0  0  0  0  0  0  0  0  0
    1.2080    2.6210   -8.5730 C   0  0  0  0  0  0  0  0  0  0  0  0
    0.7530    3.4710   -8.0650 H   0  0  0  0  0  0  0  0  0  0  0  0
    0.6000    2.3470   -9.4350 H   0  0  0  0  0  0  0  0  0  0  0  0
    1.2480    1.4500   -7.6160 C   0  0  0  0  0  0  0  0  0  0  0  0
    2.1300    1.5540   -6.9850 H   0  0  0  0  0  0  0  0  0  0  0  0
    1.3270    0.5330   -8.2000 H   0  0  0  0  0  0  0  0  0  0  0  0
    0.0220    1.3380   -6.7120 N   0  0  0  0  0  4  0  0  0  0  0  0
   -0.0630    2.2000   -6.1370 H   0  0  0  0  0  0  0  0  0  0  0  0
   -0.8300    1.2250   -7.2980 H   0  0  0  0  0  0  0  0  0  0  0  0
    0.1270    0.5130   -6.0880 H   0  0  0  0  0  0  0  0  0  0  0  0
    3.8150    5.3320  -11.1570 N   0  0  0  0  0  0  0  0  0  0  0  0
    4.3440    5.3460  -10.2620 H   0  0  0  0  0  0  0  0  0  0  0  0
    3.4060    6.5700  -11.7600 C   0  0  2  0  0  0  0  0  0  0  0  0
    2.6010    6.3500  -12.4610 H   0  0  0  0  0  0  0  0  0  0  0  0
    4.5830    7.2000  -12.5340 C   0  0  0  0  0  3  0  0  0  0  0  0
    4.3900    7.6850  -13.6440 O   0  0  0  0  0  0  0  0  0  0  0  0
    2.8330    7.5740  -10.6990 C   0  0  0  0  0  0  0  0  0  0  0  0
    1.7520    7.4410  -10.6510 H   0  0  0  0  0  0  0  0  0  0  0  0
    3.2710    7.3350   -9.7300 H   0  0  0  0  0  0  0  0  0  0  0  0
    3.1220    9.0400  -11.0060 C   0  0  0  0  0  0  0  0  0  0  0  0
    2.4190    9.6990  -11.9770 C   0  0  0  0  0  0  0  0  0  0  0  0
    1.6340    9.1740  -12.5200 H   0  0  0  0  0  0  0  0  0  0  0  0
    4.1580    9.7400  -10.3510 C   0  0  0  0  0  0  0  0  0  0  0  0
    4.7460    9.2230   -9.5930 H   0  0  0  0  0  0  0  0  0  0  0  0
    2.7000   11.0760  -12.2930 C   0  0  0  0  0  0  0  0  0  0  0  0
    2.1060   11.5870  -13.0510 H   0  0  0  0  0  0  0  0  0  0  0  0
    4.4620   11.1120  -10.6520 C   0  0  0  0  0  0  0  0  0  0  0  0
    5.2550   11.6380  -10.1200 H   0  0  0  0  0  0  0  0  0  0  0  0
    3.7150   11.7570  -11.6450 C   0  0  0  0  0  0  0  0  0  0  0  0
    3.9630   13.0750  -12.0290 O   0  0  0  0  0  0  0  0  0  0  0  0
    3.3260   13.3360  -12.7410 H   0  0  0  0  0  0  0  0  0  0  0  0
   10.9780    6.3050   -4.9480 N   0  0  0  0  0  2  0  0  0  0  0  0
   10.1880    5.9880   -5.5450 H   0  0  0  0  0  0  0  0  0  0  0  0
   10.7200    6.5580   -3.5270 C   0  0  2  0  0  0  0  0  0  0  0  0
   10.9690    7.6020   -3.3390 H   0  0  0  0  0  0  0  0  0  0  0  0
   11.6250    5.7190   -2.6400 C   0  0  0  0  0  3  0  0  0  0  0  0
   12.2670    6.2920   -1.7970 O   0  0  0  0  0  0  0  0  0  0  0  0
    9.2040    6.4100   -3.1540 C   0  0  0  0  0  0  0  0  0  0  0  0
    8.6640    7.2090   -3.6620 H   0  0  0  0  0  0  0  0  0  0  0  0
    8.8680    5.4460   -3.5360 H   0  0  0  0  0  0  0  0  0  0  0  0
    8.8060    6.4750   -1.6050 C   0  0  0  0  0  0  0  0  0  0  0  0
    9.0730    5.5270   -1.1380 H   0  0  0  0  0  0  0  0  0  0  0  0
    9.3690    7.2810   -1.1350 H   0  0  0  0  0  0  0  0  0  0  0  0
    7.2710    6.7340   -1.3710 C   0  0  0  0  0  0  0  0  0  0  0  0
    6.9860    6.4380   -0.3620 H   0  0  0  0  0  0  0  0  0  0  0  0
    6.6770    6.1740   -2.0940 H   0  0  0  0  0  0  0  0  0  0  0  0
    7.0740    8.1750   -1.5550 N   0  0  0  0  0  0  0  0  0  0  0  0
    7.9010    8.7810   -1.3810 H   0  0  0  0  0  0  0  0  0  0  0  0
    5.9530    8.7950   -1.9200 C   0  0  0  0  0  0  0  0  0  0  0  0
    4.8300    8.1290   -2.1550 N   0  0  0  0  0  4  0  0  0  0  0  0
    4.8090    7.0940   -2.0560 H   0  0  0  0  0  0  0  0  0  0  0  0
    3.9710    8.6420   -2.4390 H   0  0  0  0  0  0  0  0  0  0  0  0
    5.9750   10.1110   -2.0680 N   0  0  0  0  0  0  0  0  0  0  0  0
    6.8550   10.6390   -1.9000 H   0  0  0  0  0  0  0  0  0  0  0  0
    5.1120   10.6170   -2.3520 H   0  0  0  0  0  0  0  0  0  0  0  0
   11.6800   13.6970    2.1500 N   0  0  0  0  0  2  0  0  0  0  0  0
   11.0060   14.3750    1.7400 H   0  0  0  0  0  0  0  0  0  0  0  0
   12.3750   12.7460    1.2760 C   0  0  2  0  0  0  0  0  0  0  0  0
   12.5890   11.8420    1.8460 H   0  0  0  0  0  0  0  0  0  0  0  0
   13.6730   13.4000    0.7880 C   0  0  0  0  0  3  0  0  0  0  0  0
   13.6690   14.3550    0.0170 O   0  0  0  0  0  0  0  0  0  0  0  0
   11.5200   12.3200    0.0890 C   0  0  0  0  0  0  0  0  0  0  0  0
   11.3570   13.1990   -0.5350 H   0  0  0  0  0  0  0  0  0  0  0  0
   12.0810   11.5750   -0.4740 H   0  0  0  0  0  0  0  0  0  0  0  0
   10.1640   11.7270    0.4160 C   0  0  0  0  0  0  0  0  0  0  0  0
   10.0310   10.3500    0.7370 C   0  0  0  0  0  0  0  0  0  0  0  0
   10.9170    9.7150    0.7680 H   0  0  0  0  0  0  0  0  0  0  0  0
    9.0060   12.5450    0.3790 C   0  0  0  0  0  0  0  0  0  0  0  0
    9.1020   13.6000    0.1210 H   0  0  0  0  0  0  0  0  0  0  0  0
    8.7740    9.8000    1.0140 C   0  0  0  0  0  0  0  0  0  0  0  0
    8.6750    8.7420    1.2580 H   0  0  0  0  0  0  0  0  0  0  0  0
    7.7410   12.0170    0.6690 C   0  0  0  0  0  0  0  0  0  0  0  0
    6.8570   12.6550    0.6610 H   0  0  0  0  0  0  0  0  0  0  0  0
    7.6340   10.6360    0.9730 C   0  0  0  0  0  0  0  0  0  0  0  0
    6.3730   10.1120    1.2340 O   0  0  0  0  0  0  0  0  0  0  0  0
    6.4530    9.1450    1.4290 H   0  0  0  0  0  0  0  0  0  0  0  0
    6.8140   13.4770   -8.2220 H   0  0  0  0  0  0  0  0  0  0  0  0
   -8.7350    4.5970   -6.3320 H   0  0  0  0  0  0  0  0  0  0  0  0
  1  2  1  0
  1  3  1  0
  3  4  1  6
  3  5  1  0
  3  7  1  0
  5  6  2  0
  7  8  1  0
  7  9  1  0
  7 10  1  0
 10 11  2  0
 10 12  1  0
 12250  1  0
 13 14  1  0
 13 15  1  0
 15 16  1  6
 15 17  1  0
 15 19  1  0
 17 18  2  0
 17 24  1  0
 19 20  1  0
 19 21  1  0
 19 22  1  0
 22 23  1  0
 24 25  1  0
 24 26  1  0
 26 27  1  1
 26 28  1  0
 26 30  1  0
 28 29  2  0
 28 35  1  0
 30 31  1  0
 30 32  1  0
 30 33  1  0
 33 34  1  0
 35 36  1  0
 35 37  1  0
 37 38  1  6
 37 39  1  0
 37 41  1  0
 39 40  2  0
 41 42  1  0
 41 43  1  0
 41 44  1  0
 44 45  2  0
 44 47  1  0
 45 46  1  0
 45 49  1  0
 47 48  1  0
 47 51  2  0
 49 50  1  0
 49 53  2  0
 51 52  1  0
 51 53  1  0
 53 54  1  0
 55 56  1  0
 55 57  1  0
 57 58  1  6
 57 59  1  0
 57 61  1  0
 59 60  2  0
 61 62  1  0
 61 63  1  0
 61 67  1  0
 63 64  1  0
 63 65  1  0
 63 66  1  0
 67 68  1  0
 67 69  1  0
 67 70  1  0
 71 72  1  0
 71 73  1  0
 73 74  1  1
 73 75  1  0
 73 77  1  0
 75 76  2  0
 77 78  1  6
 77 79  1  0
 77 82  1  0
 79 80  1  0
 79 81  1  0
 79 86  1  0
 82 83  1  0
 82 84  1  0
 82 85  1  0
 86 87  1  0
 86 88  1  0
 86 89  1  0
 90 91  1  0
 90 92  1  0
 92 93  1  6
 92 94  1  0
 92 96  1  0
 94 95  2  0
 96 97  1  0
 96 98  1  0
 96 99  1  0
 99100  1  0
 99101  2  0
100103  2  0
101102  1  0
101105  1  0
103104  1  0
103105  1  0
105251  1  0
106107  1  0
106108  1  0
108109  1  1
108110  1  0
108112  1  0
110111  2  0
112113  1  0
112114  1  0
112118  1  0
114115  1  0
114116  1  0
114117  1  0
118119  1  0
118120  1  0
118121  1  0
122123  1  0
122124  1  0
124125  1  1
124126  1  0
124128  1  0
126127  2  0
126132  1  0
128129  1  0
128130  1  0
128131  1  0
132133  1  0
132134  1  0
134135  1  1
134136  1  0
134138  1  0
136137  2  0
136143  1  0
138139  1  0
138140  1  0
138141  1  0
141142  1  0
143144  1  0
143145  1  0
145146  1  1
145147  1  0
145149  1  0
147148  2  0
149150  1  0
149151  1  0
149152  1  0
152153  1  0
152154  1  0
152158  1  0
154155  1  0
154156  1  0
154157  1  0
158159  1  0
158160  1  0
158161  1  0
162163  1  0
162164  1  0
164165  1  6
164166  1  0
164168  1  0
166167  2  0
166184  1  0
168169  1  0
168170  1  0
168171  1  0
171172  1  0
171173  1  0
171174  1  0
174175  1  0
174176  1  0
174177  1  0
177178  1  0
177179  1  0
177180  1  0
180181  1  0
180182  1  0
180183  1  0
184185  1  0
184186  1  0
186187  1  6
186188  1  0
186190  1  0
188189  2  0
190191  1  0
190192  1  0
190193  1  0
193194  2  0
193196  1  0
194195  1  0
194198  1  0
196197  1  0
196200  2  0
198199  1  0
198202  2  0
200201  1  0
200202  1  0
202203  1  0
203204  1  0
205206  1  0
205207  1  0
207208  1  6
207209  1  0
207211  1  0
209210  2  0
211212  1  0
211213  1  0
211214  1  0
214215  1  0
214216  1  0
214217  1  0
217218  1  0
217219  1  0
217220  1  0
220221  1  0
220222  1  0
222223  2  0
222226  1  0
223224  1  0
223225  1  0
226227  1  0
226228  1  0
229230  1  0
229231  1  0
231232  1  1
231233  1  0
231235  1  0
233234  2  0
235236  1  0
235237  1  0
235238  1  0
238239  2  0
238241  1  0
239240  1  0
239243  1  0
241242  1  0
241245  2  0
243244  1  0
243247  2  0
245246  1  0
245247  1  0
247248  1  0
248249  1  0
M  RAD  8   1   2   5   2  13   2  39   2  55   2  59   2  71   2  75   2
M  RAD  8  90   2  94   2 106   2 110   2 122   2 147   2 162   2 188   2
M  CHG  2 180   1 223   1
M  RAD  4 205   2 209   2 229   2 233   2
M  END
$$$$

     RDKit          3D

251245  0  0  0  0  0  0  0  0999 V2000
    8.2390   15.7430  -10.2460 N   0  0  0  0  0  2  0  0  0  0  0  0
    8.4060   14.8450   -9.7480 H   0  0  0  0  0  0  0  0  0  0  0  0
    7.1270   16.5820   -9.8330 C   0  0  2  0  0  0  0  0  0  0  0  0
    6.5240   16.7530  -10.7240 H   0  0  0  0  0  0  0  0  0  0  0  0
    7.5010   17.9630   -9.3590 C   0  0  0  0  0  3  0  0  0  0  0  0
    8.3130   18.1090   -8.4540 O   0  0  0  0  0  0  0  0  0  0  0  0
    6.3630   15.8620   -8.7680 C   0  0  0  0  0  0  0  0  0  0  0  0
    7.0440   15.5910   -7.9610 H   0  0  0  0  0  0  0  0  0  0  0  0
    5.5850   16.5200   -8.3800 H   0  0  0  0  0  0  0  0  0  0  0  0
    5.7360   14.6350   -9.3040 C   0  0  0  0  0  0  0  0  0  0  0  0
    4.8520   14.7920  -10.1880 O   0  0  0  0  0  0  0  0  0  0  0  0
    6.1520   13.5130   -8.8840 O   0  0  0  0  0  0  0  0  0  0  0  0
    1.6580   16.8130  -11.9920 N   0  0  0  0  0  2  0  0  0  0  0  0
    2.3630   16.6600  -11.2430 H   0  0  0  0  0  0  0  0  0  0  0  0
    0.5750   15.8710  -12.1280 C   0  0  2  0  0  0  0  0  0  0  0  0
    0.1290   15.9910  -13.1150 H   0  0  0  0  0  0  0  0  0  0  0  0
   -0.5220   16.1130  -11.1130 C   0  0  0  0  0  0  0  0  0  0  0  0
   -0.2990   16.7340  -10.0760 O   0  0  0  0  0  0  0  0  0  0  0  0
    1.1300   14.4960  -11.9520 C   0  0  0  0  0  0  0  0  0  0  0  0
    0.3140   13.7740  -11.9180 H   0  0  0  0  0  0  0  0  0  0  0  0
    1.6970   14.4460  -11.0220 H   0  0  0  0  0  0  0  0  0  0  0  0
    1.9940   14.1960  -13.0610 O   0  0  0  0  0  0  0  0  0  0  0  0
    2.3660   13.2850  -12.9510 H   0  0  0  0  0  0  0  0  0  0  0  0
   -1.7070   15.5990  -11.3820 N   0  0  0  0  0  0  0  0  0  0  0  0
   -1.8300   15.0390  -12.2500 H   0  0  0  0  0  0  0  0  0  0  0  0
   -2.8500   15.7940  -10.4960 C   0  0  2  0  0  0  0  0  0  0  0  0
   -2.4940   15.6940   -9.4710 H   0  0  0  0  0  0  0  0  0  0  0  0
   -3.9360   14.7420  -10.7100 C   0  0  0  0  0  0  0  0  0  0  0  0
   -4.1170   14.2150  -11.8220 O   0  0  0  0  0  0  0  0  0  0  0  0
   -3.4310   17.1680  -10.7260 C   0  0  0  0  0  0  0  0  0  0  0  0
   -3.6970   17.2780  -11.7770 H   0  0  0  0  0  0  0  0  0  0  0  0
   -2.6920   17.9230  -10.4590 H   0  0  0  0  0  0  0  0  0  0  0  0
   -4.5930   17.3400   -9.9250 O   0  0  0  0  0  0  0  0  0  0  0  0
   -4.9690   18.2430  -10.0800 H   0  0  0  0  0  0  0  0  0  0  0  0
   -4.6520   14.4140   -9.6350 N   0  0  0  0  0  0  0  0  0  0  0  0
   -4.3590   14.7920   -8.7110 H   0  0  0  0  0  0  0  0  0  0  0  0
   -5.8320   13.5460   -9.6910 C   0  0  2  0  0  0  0  0  0  0  0  0
   -5.6450   12.7780  -10.4420 H   0  0  0  0  0  0  0  0  0  0  0  0
   -7.0770   14.3290  -10.1220 C   0  0  0  0  0  3  0  0  0  0  0  0
   -8.0250   13.7390  -10.5890 O   0  0  0  0  0  0  0  0  0  0  0  0
   -6.0610   12.8570   -8.3570 C   0  0  0  0  0  0  0  0  0  0  0  0
   -5.9730   13.6020   -7.5670 H   0  0  0  0  0  0  0  0  0  0  0  0
   -7.0700   12.4440   -8.3540 H   0  0  0  0  0  0  0  0  0  0  0  0
   -5.0730   11.7210   -8.0610 C   0  0  0  0  0  0  0  0  0  0  0  0
   -4.0720   11.8810   -7.1020 C   0  0  0  0  0  0  0  0  0  0  0  0
   -3.9860   12.8270   -6.5670 H   0  0  0  0  0  0  0  0  0  0  0  0
   -5.1740   10.4980   -8.7080 C   0  0  0  0  0  0  0  0  0  0  0  0
   -5.9560   10.3530   -9.4530 H   0  0  0  0  0  0  0  0  0  0  0  0
   -3.1820   10.8480   -6.8190 C   0  0  0  0  0  0  0  0  0  0  0  0
   -2.4060   10.9870   -6.0660 H   0  0  0  0  0  0  0  0  0  0  0  0
   -4.2920    9.4420   -8.4250 C   0  0  0  0  0  0  0  0  0  0  0  0
   -4.4060    8.4830   -8.9310 H   0  0  0  0  0  0  0  0  0  0  0  0
   -3.2860    9.6220   -7.5080 C   0  0  0  0  0  0  0  0  0  0  0  0
   -2.5720    8.8220   -7.3140 H   0  0  0  0  0  0  0  0  0  0  0  0
   -3.3140    5.0230  -13.0570 N   0  0  0  0  0  2  0  0  0  0  0  0
   -4.1400    5.6150  -12.8370 H   0  0  0  0  0  0  0  0  0  0  0  0
   -2.5170    4.4610  -11.9940 C   0  0  2  0  0  0  0  0  0  0  0  0
   -1.7250    3.8470  -12.4230 H   0  0  0  0  0  0  0  0  0  0  0  0
   -3.4380    3.6400  -11.1070 C   0  0  0  0  0  3  0  0  0  0  0  0
   -4.4710    4.1900  -10.6370 O   0  0  0  0  0  0  0  0  0  0  0  0
   -1.8540    5.5840  -11.1350 C   0  0  0  0  0  0  0  0  0  0  0  0
   -2.6490    6.2450  -10.7900 H   0  0  0  0  0  0  0  0  0  0  0  0
   -1.1450    4.9970   -9.9330 C   0  0  0  0  0  0  0  0  0  0  0  0
   -1.8650    4.4610   -9.3150 H   0  0  0  0  0  0  0  0  0  0  0  0
   -0.3700    4.3090  -10.2700 H   0  0  0  0  0  0  0  0  0  0  0  0
   -0.6920    5.8000   -9.3520 H   0  0  0  0  0  0  0  0  0  0  0  0
   -0.8790    6.3820  -11.9530 C   0  0  0  0  0  0  0  0  0  0  0  0
   -0.0980    5.7220  -12.3300 H   0  0  0  0  0  0  0  0  0  0  0  0
   -1.4020    6.8440  -12.7900 H   0  0  0  0  0  0  0  0  0  0  0  0
   -0.4320    7.1570  -11.3300 H   0  0  0  0  0  0  0  0  0  0  0  0
   -4.5210    2.0210   -7.7850 N   0  0  0  0  0  2  0  0  0  0  0  0
   -5.4600    2.1270   -8.2190 H   0  0  0  0  0  0  0  0  0  0  0  0
   -4.3760    2.2860   -6.3400 C   0  0  2  0  0  0  0  0  0  0  0  0
   -3.3700    1.9630   -6.0710 H   0  0  0  0  0  0  0  0  0  0  0  0
   -5.3740    1.4700   -5.5200 C   0  0  0  0  0  3  0  0  0  0  0  0
   -6.6090    1.7400   -5.5300 O   0  0  0  0  0  0  0  0  0  0  0  0
   -4.4620    3.8040   -5.9870 C   0  0  2  0  0  0  0  0  0  0  0  0
   -5.4400    4.1780   -6.2900 H   0  0  0  0  0  0  0  0  0  0  0  0
   -3.3750    4.5860   -6.7450 C   0  0  0  0  0  0  0  0  0  0  0  0
   -2.4260    4.4330   -6.2310 H   0  0  0  0  0  0  0  0  0  0  0  0
   -3.3090    4.1820   -7.7550 H   0  0  0  0  0  0  0  0  0  0  0  0
   -4.3050    4.0130   -4.4580 C   0  0  0  0  0  0  0  0  0  0  0  0
   -5.1000    3.4810   -3.9360 H   0  0  0  0  0  0  0  0  0  0  0  0
   -3.3370    3.6280   -4.1370 H   0  0  0  0  0  0  0  0  0  0  0  0
   -4.3670    5.0770   -4.2300 H   0  0  0  0  0  0  0  0  0  0  0  0
   -3.6210    6.0930   -6.8510 C   0  0  0  0  0  0  0  0  0  0  0  0
   -4.5590    6.2710   -7.3760 H   0  0  0  0  0  0  0  0  0  0  0  0
   -3.6760    6.5220   -5.8510 H   0  0  0  0  0  0  0  0  0  0  0  0
   -2.8020    6.5560   -7.4010 H   0  0  0  0  0  0  0  0  0  0  0  0
   -7.1030    4.9550  -11.2140 N   0  0  0  0  0  2  0  0  0  0  0  0
   -6.1220    4.6450  -11.0650 H   0  0  0  0  0  0  0  0  0  0  0  0
   -7.3690    6.3930  -11.2260 C   0  0  2  0  0  0  0  0  0  0  0  0
   -8.4260    6.5500  -11.4390 H   0  0  0  0  0  0  0  0  0  0  0  0
   -6.5510    7.1110  -12.3230 C   0  0  0  0  0  3  0  0  0  0  0  0
   -5.3670    6.8340  -12.4820 O   0  0  0  0  0  0  0  0  0  0  0  0
   -6.9990    6.9690   -9.8590 C   0  0  0  0  0  0  0  0  0  0  0  0
   -5.9460    6.7590   -9.6690 H   0  0  0  0  0  0  0  0  0  0  0  0
   -7.1550    8.0480   -9.8840 H   0  0  0  0  0  0  0  0  0  0  0  0
   -7.8100    6.3970   -8.7320 C   0  0  0  0  0  0  0  0  0  0  0  0
   -9.1120    6.7880   -8.4820 N   0  0  0  0  0  0  0  0  0  0  0  0
   -7.5200    5.4300   -7.8250 C   0  0  0  0  0  0  0  0  0  0  0  0
   -6.5730    4.9000   -7.7210 H   0  0  0  0  0  0  0  0  0  0  0  0
   -9.5840    6.0790   -7.4730 C   0  0  0  0  0  0  0  0  0  0  0  0
  -10.5840    6.1660   -7.0470 H   0  0  0  0  0  0  0  0  0  0  0  0
   -8.6430    5.2470   -7.0660 N   0  0  0  0  0  0  0  0  0  0  0  0
   -4.3430    9.9870  -13.8600 N   0  0  0  0  0  2  0  0  0  0  0  0
   -3.9430    9.2670  -14.4950 H   0  0  0  0  0  0  0  0  0  0  0  0
   -3.4660   11.0950  -13.4060 C   0  0  2  0  0  0  0  0  0  0  0  0
   -3.9980   11.6020  -12.6010 H   0  0  0  0  0  0  0  0  0  0  0  0
   -3.1980   12.0700  -14.5610 C   0  0  0  0  0  3  0  0  0  0  0  0
   -2.6940   11.6660  -15.6100 O   0  0  0  0  0  0  0  0  0  0  0  0
   -2.1230   10.5980  -12.8370 C   0  0  0  0  0  0  0  0  0  0  0  0
   -1.6160   10.0380  -13.6230 H   0  0  0  0  0  0  0  0  0  0  0  0
   -1.2160   11.7770  -12.4230 C   0  0  0  0  0  0  0  0  0  0  0  0
   -1.0140   12.4010  -13.2930 H   0  0  0  0  0  0  0  0  0  0  0  0
   -1.7190   12.3690  -11.6580 H   0  0  0  0  0  0  0  0  0  0  0  0
   -0.2780   11.3900  -12.0260 H   0  0  0  0  0  0  0  0  0  0  0  0
   -2.3600    9.6900  -11.6480 C   0  0  0  0  0  0  0  0  0  0  0  0
   -2.8940   10.2400  -10.8730 H   0  0  0  0  0  0  0  0  0  0  0  0
   -2.9540    8.8310  -11.9610 H   0  0  0  0  0  0  0  0  0  0  0  0
   -1.4020    9.3470  -11.2570 H   0  0  0  0  0  0  0  0  0  0  0  0
   10.6540   11.3050   -5.5760 N   0  0  0  0  0  2  0  0  0  0  0  0
   10.3920   12.2850   -5.8030 H   0  0  0  0  0  0  0  0  0  0  0  0
   10.0940   10.6720   -4.3490 C   0  0  2  0  0  0  0  0  0  0  0  0
   10.8680    9.9920   -3.9930 H   0  0  0  0  0  0  0  0  0  0  0  0
    8.8430    9.8410   -4.6350 C   0  0  0  0  0  0  0  0  0  0  0  0
    8.3760    9.1070   -3.7350 O   0  0  0  0  0  0  0  0  0  0  0  0
    9.8210   11.6790   -3.2540 C   0  0  0  0  0  0  0  0  0  0  0  0
   10.7510   12.1790   -2.9810 H   0  0  0  0  0  0  0  0  0  0  0  0
    9.1020   12.4160   -3.6110 H   0  0  0  0  0  0  0  0  0  0  0  0
    9.4140   11.1650   -2.3830 H   0  0  0  0  0  0  0  0  0  0  0  0
    8.3280    9.9240   -5.8760 N   0  0  0  0  0  0  0  0  0  0  0  0
    8.8050   10.5390   -6.5650 H   0  0  0  0  0  0  0  0  0  0  0  0
    7.1420    9.2010   -6.3060 C   0  0  2  0  0  0  0  0  0  0  0  0
    6.4000    9.3360   -5.5190 H   0  0  0  0  0  0  0  0  0  0  0  0
    7.4250    7.7530   -6.4980 C   0  0  0  0  0  0  0  0  0  0  0  0
    8.5700    7.2700   -6.4620 O   0  0  0  0  0  0  0  0  0  0  0  0
    6.6180    9.7450   -7.6390 C   0  0  0  0  0  0  0  0  0  0  0  0
    5.6190    9.3460   -7.8150 H   0  0  0  0  0  0  0  0  0  0  0  0
    7.2840    9.4210   -8.4390 H   0  0  0  0  0  0  0  0  0  0  0  0
    6.5530   11.1910   -7.6390 O   0  0  0  0  0  0  0  0  0  0  0  0
    6.2110   11.5050   -8.5140 H   0  0  0  0  0  0  0  0  0  0  0  0
    6.3550    7.0580   -6.8100 N   0  0  0  0  0  0  0  0  0  0  0  0
    5.4610    7.5640   -6.9720 H   0  0  0  0  0  0  0  0  0  0  0  0
    6.3700    5.6400   -6.9350 C   0  0  2  0  0  0  0  0  0  0  0  0
    7.1620    5.1570   -6.3640 H   0  0  0  0  0  0  0  0  0  0  0  0
    6.5790    5.3360   -8.4090 C   0  0  0  0  0  3  0  0  0  0  0  0
    6.0940    6.0730   -9.2600 O   0  0  0  0  0  0  0  0  0  0  0  0
    5.0220    5.1190   -6.4090 C   0  0  0  0  0  0  0  0  0  0  0  0
    4.2350    5.7010   -6.8870 H   0  0  0  0  0  0  0  0  0  0  0  0
    4.9330    4.0750   -6.7090 H   0  0  0  0  0  0  0  0  0  0  0  0
    4.7900    5.1880   -4.8740 C   0  0  0  0  0  0  0  0  0  0  0  0
    5.0100    6.2120   -4.5710 H   0  0  0  0  0  0  0  0  0  0  0  0
    3.3110    4.7880   -4.5700 C   0  0  0  0  0  0  0  0  0  0  0  0
    2.6380    5.4790   -5.0770 H   0  0  0  0  0  0  0  0  0  0  0  0
    3.1300    3.7740   -4.9260 H   0  0  0  0  0  0  0  0  0  0  0  0
    3.1370    4.8330   -3.4950 H   0  0  0  0  0  0  0  0  0  0  0  0
    5.7270    4.2640   -4.0560 C   0  0  0  0  0  0  0  0  0  0  0  0
    5.5710    3.2290   -4.3610 H   0  0  0  0  0  0  0  0  0  0  0  0
    6.7640    4.5460   -4.2400 H   0  0  0  0  0  0  0  0  0  0  0  0
    5.5030    4.3690   -2.9940 H   0  0  0  0  0  0  0  0  0  0  0  0
    5.3050    3.2970  -10.3550 N   0  0  0  0  0  2  0  0  0  0  0  0
    5.3190    3.2100   -9.3190 H   0  0  0  0  0  0  0  0  0  0  0  0
    4.1120    2.9140  -11.0930 C   0  0  2  0  0  0  0  0  0  0  0  0
    4.3770    2.2010  -11.8730 H   0  0  0  0  0  0  0  0  0  0  0  0
    3.5250    4.1710  -11.7290 C   0  0  0  0  0  0  0  0  0  0  0  0
    2.8290    4.0740  -12.7370 O   0  0  0  0  0  0  0  0  0  0  0  0
    3.0890    2.1810  -10.2000 C   0  0  0  0  0  0  0  0  0  0  0  0
    2.2390    1.8870  -10.8160 H   0  0  0  0  0  0  0  0  0  0  0  0
    3.5630    1.2900   -9.7890 H   0  0  0  0  0  0  0  0  0  0  0  0
    2.5850    3.0260   -9.0590 C   0  0  0  0  0  0  0  0  0  0  0  0
    3.2850    2.9380   -8.2280 H   0  0  0  0  0  0  0  0  0  0  0  0
    2.5440    4.0640   -9.3890 H   0  0  0  0  0  0  0  0  0  0  0  0
    1.2080    2.6210   -8.5730 C   0  0  0  0  0  0  0  0  0  0  0  0
    0.7530    3.4710   -8.0650 H   0  0  0  0  0  0  0  0  0  0  0  0
    0.6000    2.3470   -9.4350 H   0  0  0  0  0  0  0  0  0  0  0  0
    1.2480    1.4500   -7.6160 C   0  0  0  0  0  0  0  0  0  0  0  0
    2.1300    1.5540   -6.9850 H   0  0  0  0  0  0  0  0  0  0  0  0
    1.3270    0.5330   -8.2000 H   0  0  0  0  0  0  0  0  0  0  0  0
    0.0220    1.3380   -6.7120 N   0  0  0  0  0  4  0  0  0  0  0  0
   -0.0630    2.2000   -6.1370 H   0  0  0  0  0  0  0  0  0  0  0  0
   -0.8300    1.2250   -7.2980 H   0  0  0  0  0  0  0  0  0  0  0  0
    0.1270    0.5130   -6.0880 H   0  0  0  0  0  0  0  0  0  0  0  0
    3.8150    5.3320  -11.1570 N   0  0  0  0  0  0  0  0  0  0  0  0
    4.3440    5.3460  -10.2620 H   0  0  0  0  0  0  0  0  0  0  0  0
    3.4060    6.5700  -11.7600 C   0  0  2  0  0  0  0  0  0  0  0  0
    2.6010    6.3500  -12.4610 H   0  0  0  0  0  0  0  0  0  0  0  0
    4.5830    7.2000  -12.5340 C   0  0  0  0  0  3  0  0  0  0  0  0
    4.3900    7.6850  -13.6440 O   0  0  0  0  0  0  0  0  0  0  0  0
    2.8330    7.5740  -10.6990 C   0  0  0  0  0  0  0  0  0  0  0  0
    1.7520    7.4410  -10.6510 H   0  0  0  0  0  0  0  0  0  0  0  0
    3.2710    7.3350   -9.7300 H   0  0  0  0  0  0  0  0  0  0  0  0
    3.1220    9.0400  -11.0060 C   0  0  0  0  0  0  0  0  0  0  0  0
    2.4190    9.6990  -11.9770 C   0  0  0  0  0  0  0  0  0  0  0  0
    1.6340    9.1740  -12.5200 H   0  0  0  0  0  0  0  0  0  0  0  0
    4.1580    9.7400  -10.3510 C   0  0  0  0  0  0  0  0  0  0  0  0
    4.7460    9.2230   -9.5930 H   0  0  0  0  0  0  0  0  0  0  0  0
    2.7000   11.0760  -12.2930 C   0  0  0  0  0  0  0  0  0  0  0  0
    2.1060   11.5870  -13.0510 H   0  0  0  0  0  0  0  0  0  0  0  0
    4.4620   11.1120  -10.6520 C   0  0  0  0  0  0  0  0  0  0  0  0
    5.2550   11.6380  -10.1200 H   0  0  0  0  0  0  0  0  0  0  0  0
    3.7150   11.7570  -11.6450 C   0  0  0  0  0  0  0  0  0  0  0  0
    3.9630   13.0750  -12.0290 O   0  0  0  0  0  0  0  0  0  0  0  0
    3.3260   13.3360  -12.7410 H   0  0  0  0  0  0  0  0  0  0  0  0
   10.9780    6.3050   -4.9480 N   0  0  0  0  0  2  0  0  0  0  0  0
   10.1880    5.9880   -5.5450 H   0  0  0  0  0  0  0  0  0  0  0  0
   10.7200    6.5580   -3.5270 C   0  0  2  0  0  0  0  0  0  0  0  0
   10.9690    7.6020   -3.3390 H   0  0  0  0  0  0  0  0  0  0  0  0
   11.6250    5.7190   -2.6400 C   0  0  0  0  0  3  0  0  0  0  0  0
   12.2670    6.2920   -1.7970 O   0  0  0  0  0  0  0  0  0  0  0  0
    9.2040    6.4100   -3.1540 C   0  0  0  0  0  0  0  0  0  0  0  0
    8.6640    7.2090   -3.6620 H   0  0  0  0  0  0  0  0  0  0  0  0
    8.8680    5.4460   -3.5360 H   0  0  0  0  0  0  0  0  0  0  0  0
    8.8060    6.4750   -1.6050 C   0  0  0  0  0  0  0  0  0  0  0  0
    9.0730    5.5270   -1.1380 H   0  0  0  0  0  0  0  0  0  0  0  0
    9.3690    7.2810   -1.1350 H   0  0  0  0  0  0  0  0  0  0  0  0
    7.2710    6.7340   -1.3710 C   0  0  0  0  0  0  0  0  0  0  0  0
    6.9860    6.4380   -0.3620 H   0  0  0  0  0  0  0  0  0  0  0  0
    6.6770    6.1740   -2.0940 H   0  0  0  0  0  0  0  0  0  0  0  0
    7.0740    8.1750   -1.5550 N   0  0  0  0  0  0  0  0  0  0  0  0
    7.9010    8.7810   -1.3810 H   0  0  0  0  0  0  0  0  0  0  0  0
    5.9530    8.7950   -1.9200 C   0  0  0  0  0  0  0  0  0  0  0  0
    4.8300    8.1290   -2.1550 N   0  0  0  0  0  4  0  0  0  0  0  0
    4.8090    7.0940   -2.0560 H   0  0  0  0  0  0  0  0  0  0  0  0
    3.9710    8.6420   -2.4390 H   0  0  0  0  0  0  0  0  0  0  0  0
    5.9750   10.1110   -2.0680 N   0  0  0  0  0  0  0  0  0  0  0  0
    6.8550   10.6390   -1.9000 H   0  0  0  0  0  0  0  0  0  0  0  0
    5.1120   10.6170   -2.3520 H   0  0  0  0  0  0  0  0  0  0  0  0
   11.6800   13.6970    2.1500 N   0  0  0  0  0  2  0  0  0  0  0  0
   11.0060   14.3750    1.7400 H   0  0  0  0  0  0  0  0  0  0  0  0
   12.3750   12.7460    1.2760 C   0  0  2  0  0  0  0  0  0  0  0  0
   12.5890   11.8420    1.8460 H   0  0  0  0  0  0  0  0  0  0  0  0
   13.6730   13.4000    0.7880 C   0  0  0  0  0  3  0  0  0  0  0  0
   13.6690   14.3550    0.0170 O   0  0  0  0  0  0  0  0  0  0  0  0
   11.5200   12.3200    0.0890 C   0  0  0  0  0  0  0  0  0  0  0  0
   11.3570   13.1990   -0.5350 H   0  0  0  0  0  0  0  0  0  0  0  0
   12.0810   11.5750   -0.4740 H   0  0  0  0  0  0  0  0  0  0  0  0
   10.1640   11.7270    0.4160 C   0  0  0  0  0  0  0  0  0  0  0  0
   10.0310   10.3500    0.7370 C   0  0  0  0  0  0  0  0  0  0  0  0
   10.9170    9.7150    0.7680 H   0  0  0  0  0  0  0  0  0  0  0  0
    9.0060   12.5450    0.3790 C   0  0  0  0  0  0  0  0  0  0  0  0
    9.1020   13.6000    0.1210 H   0  0  0  0  0  0  0  0  0  0  0  0
    8.7740    9.8000    1.0140 C   0  0  0  0  0  0  0  0  0  0  0  0
    8.6750    8.7420    1.2580 H   0  0  0  0  0  0  0  0  0  0  0  0
    7.7410   12.0170    0.6690 C   0  0  0  0  0  0  0  0  0  0  0  0
    6.8570   12.6550    0.6610 H   0  0  0  0  0  0  0  0  0  0  0  0
    7.6340   10.6360    0.9730 C   0  0  0  0  0  0  0  0  0  0  0  0
    6.3730   10.1120    1.2340 O   0  0  0  0  0  0  0  0  0  0  0  0
    6.4530    9.1450    1.4290 H   0  0  0  0  0  0  0  0  0  0  0  0
    6.8140   13.4770   -8.2220 H   0  0  0  0  0  0  0  0  0  0  0  0
   -8.7350    4.5970   -6.3320 H   0  0  0  0  0  0  0  0  0  0  0  0
  1  2  1  0
  1  3  1  0
  3  4  1  6
  3  5  1  0
  3  7  1  0
  5  6  2  0
  7  8  1  0
  7  9  1  0
  7 10  1  0
 10 11  2  0
 10 12  1  0
 12250  1  0
 13 14  1  0
 13 15  1  0
 15 16  1  6
 15 17  1  0
 15 19  1  0
 17 18  2  0
 17 24  1  0
 19 20  1  0
 19 21  1  0
 19 22  1  0
 22 23  1  0
 24 25  1  0
 24 26  1  0
 26 27  1  1
 26 28  1  0
 26 30  1  0
 28 29  2  0
 28 35  1  0
 30 31  1  0
 30 32  1  0
 30 33  1  0
 33 34  1  0
 35 36  1  0
 35 37  1  0
 37 38  1  6
 37 39  1  0
 37 41  1  0
 39 40  2  0
 41 42  1  0
 41 43  1  0
 41 44  1  0
 44 45  2  0
 44 47  1  0
 45 46  1  0
 45 49  1  0
 47 48  1  0
 47 51  2  0
 49 50  1  0
 49 53  2  0
 51 52  1  0
 51 53  1  0
 53 54  1  0
 55 56  1  0
 55 57  1  0
 57 58  1  6
 57 59  1  0
 57 61  1  0
 59 60  2  0
 61 62  1  0
 61 63  1  0
 61 67  1  0
 63 64  1  0
 63 65  1  0
 63 66  1  0
 67 68  1  0
 67 69  1  0
 67 70  1  0
 71 72  1  0
 71 73  1  0
 73 74  1  1
 73 75  1  0
 73 77  1  0
 75 76  2  0
 77 78  1  6
 77 79  1  0
 77 82  1  0
 79 80  1  0
 79 81  1  0
 79 86  1  0
 82 83  1  0
 82 84  1  0
 82 85  1  0
 86 87  1  0
 86 88  1  0
 86 89  1  0
 90 91  1  0
 90 92  1  0
 92 93  1  6
 92 94  1  0
 92 96  1  0
 94 95  2  0
 96 97  1  0
 96 98  1  0
 96 99  1  0
 99100  1  0
 99101  2  0
100103  2  0
101102  1  0
101105  1  0
103104  1  0
103105  1  0
105251  1  0
106107  1  0
106108  1  0
108109  1  1
108110  1  0
108112  1  0
110111  2  0
112113  1  0
112114  1  0
112118  1  0
114115  1  0
114116  1  0
114117  1  0
118119  1  0
118120  1  0
118121  1  0
122123  1  0
122124  1  0
124125  1  1
124126  1  0
124128  1  0
126127  2  0
126132  1  0
128129  1  0
128130  1  0
128131  1  0
132133  1  0
132134  1  0
134135  1  1
134136  1  0
134138  1  0
136137  2  0
136143  1  0
138139  1  0
138140  1  0
138141  1  0
141142  1  0
143144  1  0
143145  1  0
145146  1  1
145147  1  0
145149  1  0
147148  2  0
149150  1  0
149151  1  0
149152  1  0
152153  1  0
152154  1  0
152158  1  0
154155  1  0
154156  1  0
154157  1  0
158159  1  0
158160  1  0
158161  1  0
162163  1  0
162164  1  0
164165  1  6
164166  1  0
164168  1  0
166167  2  0
166184  1  0
168169  1  0
168170  1  0
168171  1  0
171172  1  0
171173  1  0
171174  1  0
174175  1  0
174176  1  0
174177  1  0
177178  1  0
177179  1  0
177180  1  0
180181  1  0
180182  1  0
180183  1  0
184185  1  0
184186  1  0
186187  1  6
186188  1  0
186190  1  0
188189  2  0
190191  1  0
190192  1  0
190193  1  0
193194  2  0
193196  1  0
194195  1  0
194198  1  0
196197  1  0
196200  2  0
198199  1  0
198202  2  0
200201  1  0
200202  1  0
202203  1  0
203204  1  0
205206  1  0
205207  1  0
207208  1  6
207209  1  0
207211  1  0
209210  2  0
211212  1  0
211213  1  0
211214  1  0
214215  1  0
214216  1  0
214217  1  0
217218  1  0
217219  1  0
217220  1  0
220221  1  0
220222  1  0
222223  2  0
222226  1  0
223224  1  0
223225  1  0
226227  1  0
226228  1  0
229230  1  0
229231  1  0
231232  1  1
231233  1  0
231235  1  0
233234  2  0
235236  1  0
235237  1  0
235238  1  0
238239  2  0
238241  1  0
239240  1  0
239243  1  0
241242  1  0
241245  2  0
243244  1  0
243247  2  0
245246  1  0
245247  1  0
247248  1  0
248249  1  0
M  RAD  8   1   2   5   2  13   2  39   2  55   2  59   2  71   2  75   2
M  RAD  8  90   2  94   2 106   2 110   2 122   2 147   2 162   2 188   2
M  CHG  2 180   1 223   1
M  RAD  4 205   2 209   2 229   2 233   2
M  END
$$$$

     RDKit          3D

251245  0  0  0  0  0  0  0  0999 V2000
    8.2390   15.7430  -10.2460 N   0  0  0  0  0  2  0  0  0  0  0  0
    8.4060   14.8450   -9.7480 H   0  0  0  0  0  0  0  0  0  0  0  0
    7.1270   16.5820   -9.8330 C   0  0  2  0  0  0  0  0  0  0  0  0
    6.5240   16.7530  -10.7240 H   0  0  0  0  0  0  0  0  0  0  0  0
    7.5010   17.9630   -9.3590 C   0  0  0  0  0  3  0  0  0  0  0  0
    8.3130   18.1090   -8.4540 O   0  0  0  0  0  0  0  0  0  0  0  0
    6.3630   15.8620   -8.7680 C   0  0  0  0  0  0  0  0  0  0  0  0
    7.0440   15.5910   -7.9610 H   0  0  0  0  0  0  0  0  0  0  0  0
    5.5850   16.5200   -8.3800 H   0  0  0  0  0  0  0  0  0  0  0  0
    5.7360   14.6350   -9.3040 C   0  0  0  0  0  0  0  0  0  0  0  0
    4.8520   14.7920  -10.1880 O   0  0  0  0  0  0  0  0  0  0  0  0
    6.1520   13.5130   -8.8840 O   0  0  0  0  0  0  0  0  0  0  0  0
    1.6580   16.8130  -11.9920 N   0  0  0  0  0  2  0  0  0  0  0  0
    2.3630   16.6600  -11.2430 H   0  0  0  0  0  0  0  0  0  0  0  0
    0.5750   15.8710  -12.1280 C   0  0  2  0  0  0  0  0  0  0  0  0
    0.1290   15.9910  -13.1150 H   0  0  0  0  0  0  0  0  0  0  0  0
   -0.5220   16.1130  -11.1130 C   0  0  0  0  0  0  0  0  0  0  0  0
   -0.2990   16.7340  -10.0760 O   0  0  0  0  0  0  0  0  0  0  0  0
    1.1300   14.4960  -11.9520 C   0  0  0  0  0  0  0  0  0  0  0  0
    0.3140   13.7740  -11.9180 H   0  0  0  0  0  0  0  0  0  0  0  0
    1.6970   14.4460  -11.0220 H   0  0  0  0  0  0  0  0  0  0  0  0
    1.9940   14.1960  -13.0610 O   0  0  0  0  0  0  0  0  0  0  0  0
    2.3660   13.2850  -12.9510 H   0  0  0  0  0  0  0  0  0  0  0  0
   -1.7070   15.5990  -11.3820 N   0  0  0  0  0  0  0  0  0  0  0  0
   -1.8300   15.0390  -12.2500 H   0  0  0  0  0  0  0  0  0  0  0  0
   -2.8500   15.7940  -10.4960 C   0  0  2  0  0  0  0  0  0  0  0  0
   -2.4940   15.6940   -9.4710 H   0  0  0  0  0  0  0  0  0  0  0  0
   -3.9360   14.7420  -10.7100 C   0  0  0  0  0  0  0  0  0  0  0  0
   -4.1170   14.2150  -11.8220 O   0  0  0  0  0  0  0  0  0  0  0  0
   -3.4310   17.1680  -10.7260 C   0  0  0  0  0  0  0  0  0  0  0  0
   -3.6970   17.2780  -11.7770 H   0  0  0  0  0  0  0  0  0  0  0  0
   -2.6920   17.9230  -10.4590 H   0  0  0  0  0  0  0  0  0  0  0  0
   -4.5930   17.3400   -9.9250 O   0  0  0  0  0  0  0  0  0  0  0  0
   -4.9690   18.2430  -10.0800 H   0  0  0  0  0  0  0  0  0  0  0  0
   -4.6520   14.4140   -9.6350 N   0  0  0  0  0  0  0  0  0  0  0  0
   -4.3590   14.7920   -8.7110 H   0  0  0  0  0  0  0  0  0  0  0  0
   -5.8320   13.5460   -9.6910 C   0  0  2  0  0  0  0  0  0  0  0  0
   -5.6450   12.7780  -10.4420 H   0  0  0  0  0  0  0  0  0  0  0  0
   -7.0770   14.3290  -10.1220 C   0  0  0  0  0  3  0  0  0  0  0  0
   -8.0250   13.7390  -10.5890 O   0  0  0  0  0  0  0  0  0  0  0  0
   -6.0610   12.8570   -8.3570 C   0  0  0  0  0  0  0  0  0  0  0  0
   -5.9730   13.6020   -7.5670 H   0  0  0  0  0  0  0  0  0  0  0  0
   -7.0700   12.4440   -8.3540 H   0  0  0  0  0  0  0  0  0  0  0  0
   -5.0730   11.7210   -8.0610 C   0  0  0  0  0  0  0  0  0  0  0  0
   -4.0720   11.8810   -7.1020 C   0  0  0  0  0  0  0  0  0  0  0  0
   -3.9860   12.8270   -6.5670 H   0  0  0  0  0  0  0  0  0  0  0  0
   -5.1740   10.4980   -8.7080 C   0  0  0  0  0  0  0  0  0  0  0  0
   -5.9560   10.3530   -9.4530 H   0  0  0  0  0  0  0  0  0  0  0  0
   -3.1820   10.8480   -6.8190 C   0  0  0  0  0  0  0  0  0  0  0  0
   -2.4060   10.9870   -6.0660 H   0  0  0  0  0  0  0  0  0  0  0  0
   -4.2920    9.4420   -8.4250 C   0  0  0  0  0  0  0  0  0  0  0  0
   -4.4060    8.4830   -8.9310 H   0  0  0  0  0  0  0  0  0  0  0  0
   -3.2860    9.6220   -7.5080 C   0  0  0  0  0  0  0  0  0  0  0  0
   -2.5720    8.8220   -7.3140 H   0  0  0  0  0  0  0  0  0  0  0  0
   -3.3140    5.0230  -13.0570 N   0  0  0  0  0  2  0  0  0  0  0  0
   -4.1400    5.6150  -12.8370 H   0  0  0  0  0  0  0  0  0  0  0  0
   -2.5170    4.4610  -11.9940 C   0  0  2  0  0  0  0  0  0  0  0  0
   -1.7250    3.8470  -12.4230 H   0  0  0  0  0  0  0  0  0  0  0  0
   -3.4380    3.6400  -11.1070 C   0  0  0  0  0  3  0  0  0  0  0  0
   -4.4710    4.1900  -10.6370 O   0  0  0  0  0  0  0  0  0  0  0  0
   -1.8540    5.5840  -11.1350 C   0  0  0  0  0  0  0  0  0  0  0  0
   -2.6490    6.2450  -10.7900 H   0  0  0  0  0  0  0  0  0  0  0  0
   -1.1450    4.9970   -9.9330 C   0  0  0  0  0  0  0  0  0  0  0  0
   -1.8650    4.4610   -9.3150 H   0  0  0  0  0  0  0  0  0  0  0  0
   -0.3700    4.3090  -10.2700 H   0  0  0  0  0  0  0  0  0  0  0  0
   -0.6920    5.8000   -9.3520 H   0  0  0  0  0  0  0  0  0  0  0  0
   -0.8790    6.3820  -11.9530 C   0  0  0  0  0  0  0  0  0  0  0  0
   -0.0980    5.7220  -12.3300 H   0  0  0  0  0  0  0  0  0  0  0  0
   -1.4020    6.8440  -12.7900 H   0  0  0  0  0  0  0  0  0  0  0  0
   -0.4320    7.1570  -11.3300 H   0  0  0  0  0  0  0  0  0  0  0  0
   -4.5210    2.0210   -7.7850 N   0  0  0  0  0  2  0  0  0  0  0  0
   -5.4600    2.1270   -8.2190 H   0  0  0  0  0  0  0  0  0  0  0  0
   -4.3760    2.2860   -6.3400 C   0  0  2  0  0  0  0  0  0  0  0  0
   -3.3700    1.9630   -6.0710 H   0  0  0  0  0  0  0  0  0  0  0  0
   -5.3740    1.4700   -5.5200 C   0  0  0  0  0  3  0  0  0  0  0  0
   -6.6090    1.7400   -5.5300 O   0  0  0  0  0  0  0  0  0  0  0  0
   -4.4620    3.8040   -5.9870 C   0  0  2  0  0  0  0  0  0  0  0  0
   -5.4400    4.1780   -6.2900 H   0  0  0  0  0  0  0  0  0  0  0  0
   -3.3750    4.5860   -6.7450 C   0  0  0  0  0  0  0  0  0  0  0  0
   -2.4260    4.4330   -6.2310 H   0  0  0  0  0  0  0  0  0  0  0  0
   -3.3090    4.1820   -7.7550 H   0  0  0  0  0  0  0  0  0  0  0  0
   -4.3050    4.0130   -4.4580 C   0  0  0  0  0  0  0  0  0  0  0  0
   -5.1000    3.4810   -3.9360 H   0  0  0  0  0  0  0  0  0  0  0  0
   -3.3370    3.6280   -4.1370 H   0  0  0  0  0  0  0  0  0  0  0  0
   -4.3670    5.0770   -4.2300 H   0  0  0  0  0  0  0  0  0  0  0  0
   -3.6210    6.0930   -6.8510 C   0  0  0  0  0  0  0  0  0  0  0  0
   -4.5590    6.2710   -7.3760 H   0  0  0  0  0  0  0  0  0  0  0  0
   -3.6760    6.5220   -5.8510 H   0  0  0  0  0  0  0  0  0  0  0  0
   -2.8020    6.5560   -7.4010 H   0  0  0  0  0  0  0  0  0  0  0  0
   -7.1030    4.9550  -11.2140 N   0  0  0  0  0  2  0  0  0  0  0  0
   -6.1220    4.6450  -11.0650 H   0  0  0  0  0  0  0  0  0  0  0  0
   -7.3690    6.3930  -11.2260 C   0  0  2  0  0  0  0  0  0  0  0  0
   -8.4260    6.5500  -11.4390 H   0  0  0  0  0  0  0  0  0  0  0  0
   -6.5510    7.1110  -12.3230 C   0  0  0  0  0  3  0  0  0  0  0  0
   -5.3670    6.8340  -12.4820 O   0  0  0  0  0  0  0  0  0  0  0  0
   -6.9990    6.9690   -9.8590 C   0  0  0  0  0  0  0  0  0  0  0  0
   -5.9460    6.7590   -9.6690 H   0  0  0  0  0  0  0  0  0  0  0  0
   -7.1550    8.0480   -9.8840 H   0  0  0  0  0  0  0  0  0  0  0  0
   -7.8100    6.3970   -8.7320 C   0  0  0  0  0  0  0  0  0  0  0  0
   -9.1120    6.7880   -8.4820 N   0  0  0  0  0  0  0  0  0  0  0  0
   -7.5200    5.4300   -7.8250 C   0  0  0  0  0  0  0  0  0  0  0  0
   -6.5730    4.9000   -7.7210 H   0  0  0  0  0  0  0  0  0  0  0  0
   -9.5840    6.0790   -7.4730 C   0  0  0  0  0  0  0  0  0  0  0  0
  -10.5840    6.1660   -7.0470 H   0  0  0  0  0  0  0  0  0  0  0  0
   -8.6430    5.2470   -7.0660 N   0  0  0  0  0  0  0  0  0  0  0  0
   -4.3430    9.9870  -13.8600 N   0  0  0  0  0  2  0  0  0  0  0  0
   -3.9430    9.2670  -14.4950 H   0  0  0  0  0  0  0  0  0  0  0  0
   -3.4660   11.0950  -13.4060 C   0  0  2  0  0  0  0  0  0  0  0  0
   -3.9980   11.6020  -12.6010 H   0  0  0  0  0  0  0  0  0  0  0  0
   -3.1980   12.0700  -14.5610 C   0  0  0  0  0  3  0  0  0  0  0  0
   -2.6940   11.6660  -15.6100 O   0  0  0  0  0  0  0  0  0  0  0  0
   -2.1230   10.5980  -12.8370 C   0  0  0  0  0  0  0  0  0  0  0  0
   -1.6160   10.0380  -13.6230 H   0  0  0  0  0  0  0  0  0  0  0  0
   -1.2160   11.7770  -12.4230 C   0  0  0  0  0  0  0  0  0  0  0  0
   -1.0140   12.4010  -13.2930 H   0  0  0  0  0  0  0  0  0  0  0  0
   -1.7190   12.3690  -11.6580 H   0  0  0  0  0  0  0  0  0  0  0  0
   -0.2780   11.3900  -12.0260 H   0  0  0  0  0  0  0  0  0  0  0  0
   -2.3600    9.6900  -11.6480 C   0  0  0  0  0  0  0  0  0  0  0  0
   -2.8940   10.2400  -10.8730 H   0  0  0  0  0  0  0  0  0  0  0  0
   -2.9540    8.8310  -11.9610 H   0  0  0  0  0  0  0  0  0  0  0  0
   -1.4020    9.3470  -11.2570 H   0  0  0  0  0  0  0  0  0  0  0  0
   10.6540   11.3050   -5.5760 N   0  0  0  0  0  2  0  0  0  0  0  0
   10.3920   12.2850   -5.8030 H   0  0  0  0  0  0  0  0  0  0  0  0
   10.0940   10.6720   -4.3490 C   0  0  2  0  0  0  0  0  0  0  0  0
   10.8680    9.9920   -3.9930 H   0  0  0  0  0  0  0  0  0  0  0  0
    8.8430    9.8410   -4.6350 C   0  0  0  0  0  0  0  0  0  0  0  0
    8.3760    9.1070   -3.7350 O   0  0  0  0  0  0  0  0  0  0  0  0
    9.8210   11.6790   -3.2540 C   0  0  0  0  0  0  0  0  0  0  0  0
   10.7510   12.1790   -2.9810 H   0  0  0  0  0  0  0  0  0  0  0  0
    9.1020   12.4160   -3.6110 H   0  0  0  0  0  0  0  0  0  0  0  0
    9.4140   11.1650   -2.3830 H   0  0  0  0  0  0  0  0  0  0  0  0
    8.3280    9.9240   -5.8760 N   0  0  0  0  0  0  0  0  0  0  0  0
    8.8050   10.5390   -6.5650 H   0  0  0  0  0  0  0  0  0  0  0  0
    7.1420    9.2010   -6.3060 C   0  0  2  0  0  0  0  0  0  0  0  0
    6.4000    9.3360   -5.5190 H   0  0  0  0  0  0  0  0  0  0  0  0
    7.4250    7.7530   -6.4980 C   0  0  0  0  0  0  0  0  0  0  0  0
    8.5700    7.2700   -6.4620 O   0  0  0  0  0  0  0  0  0  0  0  0
    6.6180    9.7450   -7.6390 C   0  0  0  0  0  0  0  0  0  0  0  0
    5.6190    9.3460   -7.8150 H   0  0  0  0  0  0  0  0  0  0  0  0
    7.2840    9.4210   -8.4390 H   0  0  0  0  0  0  0  0  0  0  0  0
    6.5530   11.1910   -7.6390 O   0  0  0  0  0  0  0  0  0  0  0  0
    6.2110   11.5050   -8.5140 H   0  0  0  0  0  0  0  0  0  0  0  0
    6.3550    7.0580   -6.8100 N   0  0  0  0  0  0  0  0  0  0  0  0
    5.4610    7.5640   -6.9720 H   0  0  0  0  0  0  0  0  0  0  0  0
    6.3700    5.6400   -6.9350 C   0  0  2  0  0  0  0  0  0  0  0  0
    7.1620    5.1570   -6.3640 H   0  0  0  0  0  0  0  0  0  0  0  0
    6.5790    5.3360   -8.4090 C   0  0  0  0  0  3  0  0  0  0  0  0
    6.0940    6.0730   -9.2600 O   0  0  0  0  0  0  0  0  0  0  0  0
    5.0220    5.1190   -6.4090 C   0  0  0  0  0  0  0  0  0  0  0  0
    4.2350    5.7010   -6.8870 H   0  0  0  0  0  0  0  0  0  0  0  0
    4.9330    4.0750   -6.7090 H   0  0  0  0  0  0  0  0  0  0  0  0
    4.7900    5.1880   -4.8740 C   0  0  0  0  0  0  0  0  0  0  0  0
    5.0100    6.2120   -4.5710 H   0  0  0  0  0  0  0  0  0  0  0  0
    3.3110    4.7880   -4.5700 C   0  0  0  0  0  0  0  0  0  0  0  0
    2.6380    5.4790   -5.0770 H   0  0  0  0  0  0  0  0  0  0  0  0
    3.1300    3.7740   -4.9260 H   0  0  0  0  0  0  0  0  0  0  0  0
    3.1370    4.8330   -3.4950 H   0  0  0  0  0  0  0  0  0  0  0  0
    5.7270    4.2640   -4.0560 C   0  0  0  0  0  0  0  0  0  0  0  0
    5.5710    3.2290   -4.3610 H   0  0  0  0  0  0  0  0  0  0  0  0
    6.7640    4.5460   -4.2400 H   0  0  0  0  0  0  0  0  0  0  0  0
    5.5030    4.3690   -2.9940 H   0  0  0  0  0  0  0  0  0  0  0  0
    5.3050    3.2970  -10.3550 N   0  0  0  0  0  2  0  0  0  0  0  0
    5.3190    3.2100   -9.3190 H   0  0  0  0  0  0  0  0  0  0  0  0
    4.1120    2.9140  -11.0930 C   0  0  2  0  0  0  0  0  0  0  0  0
    4.3770    2.2010  -11.8730 H   0  0  0  0  0  0  0  0  0  0  0  0
    3.5250    4.1710  -11.7290 C   0  0  0  0  0  0  0  0  0  0  0  0
    2.8290    4.0740  -12.7370 O   0  0  0  0  0  0  0  0  0  0  0  0
    3.0890    2.1810  -10.2000 C   0  0  0  0  0  0  0  0  0  0  0  0
    2.2390    1.8870  -10.8160 H   0  0  0  0  0  0  0  0  0  0  0  0
    3.5630    1.2900   -9.7890 H   0  0  0  0  0  0  0  0  0  0  0  0
    2.5850    3.0260   -9.0590 C   0  0  0  0  0  0  0  0  0  0  0  0
    3.2850    2.9380   -8.2280 H   0  0  0  0  0  0  0  0  0  0  0  0
    2.5440    4.0640   -9.3890 H   0  0  0  0  0  0  0  0  0  0  0  0
    1.2080    2.6210   -8.5730 C   0  0  0  0  0  0  0  0  0  0  0  0
    0.7530    3.4710   -8.0650 H   0  0  0  0  0  0  0  0  0  0  0  0
    0.6000    2.3470   -9.4350 H   0  0  0  0  0  0  0  0  0  0  0  0
    1.2480    1.4500   -7.6160 C   0  0  0  0  0  0  0  0  0  0  0  0
    2.1300    1.5540   -6.9850 H   0  0  0  0  0  0  0  0  0  0  0  0
    1.3270    0.5330   -8.2000 H   0  0  0  0  0  0  0  0  0  0  0  0
    0.0220    1.3380   -6.7120 N   0  0  0  0  0  4  0  0  0  0  0  0
   -0.0630    2.2000   -6.1370 H   0  0  0  0  0  0  0  0  0  0  0  0
   -0.8300    1.2250   -7.2980 H   0  0  0  0  0  0  0  0  0  0  0  0
    0.1270    0.5130   -6.0880 H   0  0  0  0  0  0  0  0  0  0  0  0
    3.8150    5.3320  -11.1570 N   0  0  0  0  0  0  0  0  0  0  0  0
    4.3440    5.3460  -10.2620 H   0  0  0  0  0  0  0  0  0  0  0  0
    3.4060    6.5700  -11.7600 C   0  0  2  0  0  0  0  0  0  0  0  0
    2.6010    6.3500  -12.4610 H   0  0  0  0  0  0  0  0  0  0  0  0
    4.5830    7.2000  -12.5340 C   0  0  0  0  0  3  0  0  0  0  0  0
    4.3900    7.6850  -13.6440 O   0  0  0  0  0  0  0  0  0  0  0  0
    2.8330    7.5740  -10.6990 C   0  0  0  0  0  0  0  0  0  0  0  0
    1.7520    7.4410  -10.6510 H   0  0  0  0  0  0  0  0  0  0  0  0
    3.2710    7.3350   -9.7300 H   0  0  0  0  0  0  0  0  0  0  0  0
    3.1220    9.0400  -11.0060 C   0  0  0  0  0  0  0  0  0  0  0  0
    2.4190    9.6990  -11.9770 C   0  0  0  0  0  0  0  0  0  0  0  0
    1.6340    9.1740  -12.5200 H   0  0  0  0  0  0  0  0  0  0  0  0
    4.1580    9.7400  -10.3510 C   0  0  0  0  0  0  0  0  0  0  0  0
    4.7460    9.2230   -9.5930 H   0  0  0  0  0  0  0  0  0  0  0  0
    2.7000   11.0760  -12.2930 C   0  0  0  0  0  0  0  0  0  0  0  0
    2.1060   11.5870  -13.0510 H   0  0  0  0  0  0  0  0  0  0  0  0
    4.4620   11.1120  -10.6520 C   0  0  0  0  0  0  0  0  0  0  0  0
    5.2550   11.6380  -10.1200 H   0  0  0  0  0  0  0  0  0  0  0  0
    3.7150   11.7570  -11.6450 C   0  0  0  0  0  0  0  0  0  0  0  0
    3.9630   13.0750  -12.0290 O   0  0  0  0  0  0  0  0  0  0  0  0
    3.3260   13.3360  -12.7410 H   0  0  0  0  0  0  0  0  0  0  0  0
   10.9780    6.3050   -4.9480 N   0  0  0  0  0  2  0  0  0  0  0  0
   10.1880    5.9880   -5.5450 H   0  0  0  0  0  0  0  0  0  0  0  0
   10.7200    6.5580   -3.5270 C   0  0  2  0  0  0  0  0  0  0  0  0
   10.9690    7.6020   -3.3390 H   0  0  0  0  0  0  0  0  0  0  0  0
   11.6250    5.7190   -2.6400 C   0  0  0  0  0  3  0  0  0  0  0  0
   12.2670    6.2920   -1.7970 O   0  0  0  0  0  0  0  0  0  0  0  0
    9.2040    6.4100   -3.1540 C   0  0  0  0  0  0  0  0  0  0  0  0
    8.6640    7.2090   -3.6620 H   0  0  0  0  0  0  0  0  0  0  0  0
    8.8680    5.4460   -3.5360 H   0  0  0  0  0  0  0  0  0  0  0  0
    8.8060    6.4750   -1.6050 C   0  0  0  0  0  0  0  0  0  0  0  0
    9.0730    5.5270   -1.1380 H   0  0  0  0  0  0  0  0  0  0  0  0
    9.3690    7.2810   -1.1350 H   0  0  0  0  0  0  0  0  0  0  0  0
    7.2710    6.7340   -1.3710 C   0  0  0  0  0  0  0  0  0  0  0  0
    6.9860    6.4380   -0.3620 H   0  0  0  0  0  0  0  0  0  0  0  0
    6.6770    6.1740   -2.0940 H   0  0  0  0  0  0  0  0  0  0  0  0
    7.0740    8.1750   -1.5550 N   0  0  0  0  0  0  0  0  0  0  0  0
    7.9010    8.7810   -1.3810 H   0  0  0  0  0  0  0  0  0  0  0  0
    5.9530    8.7950   -1.9200 C   0  0  0  0  0  0  0  0  0  0  0  0
    4.8300    8.1290   -2.1550 N   0  0  0  0  0  4  0  0  0  0  0  0
    4.8090    7.0940   -2.0560 H   0  0  0  0  0  0  0  0  0  0  0  0
    3.9710    8.6420   -2.4390 H   0  0  0  0  0  0  0  0  0  0  0  0
    5.9750   10.1110   -2.0680 N   0  0  0  0  0  0  0  0  0  0  0  0
    6.8550   10.6390   -1.9000 H   0  0  0  0  0  0  0  0  0  0  0  0
    5.1120   10.6170   -2.3520 H   0  0  0  0  0  0  0  0  0  0  0  0
   11.6800   13.6970    2.1500 N   0  0  0  0  0  2  0  0  0  0  0  0
   11.0060   14.3750    1.7400 H   0  0  0  0  0  0  0  0  0  0  0  0
   12.3750   12.7460    1.2760 C   0  0  2  0  0  0  0  0  0  0  0  0
   12.5890   11.8420    1.8460 H   0  0  0  0  0  0  0  0  0  0  0  0
   13.6730   13.4000    0.7880 C   0  0  0  0  0  3  0  0  0  0  0  0
   13.6690   14.3550    0.0170 O   0  0  0  0  0  0  0  0  0  0  0  0
   11.5200   12.3200    0.0890 C   0  0  0  0  0  0  0  0  0  0  0  0
   11.3570   13.1990   -0.5350 H   0  0  0  0  0  0  0  0  0  0  0  0
   12.0810   11.5750   -0.4740 H   0  0  0  0  0  0  0  0  0  0  0  0
   10.1640   11.7270    0.4160 C   0  0  0  0  0  0  0  0  0  0  0  0
   10.0310   10.3500    0.7370 C   0  0  0  0  0  0  0  0  0  0  0  0
   10.9170    9.7150    0.7680 H   0  0  0  0  0  0  0  0  0  0  0  0
    9.0060   12.5450    0.3790 C   0  0  0  0  0  0  0  0  0  0  0  0
    9.1020   13.6000    0.1210 H   0  0  0  0  0  0  0  0  0  0  0  0
    8.7740    9.8000    1.0140 C   0  0  0  0  0  0  0  0  0  0  0  0
    8.6750    8.7420    1.2580 H   0  0  0  0  0  0  0  0  0  0  0  0
    7.7410   12.0170    0.6690 C   0  0  0  0  0  0  0  0  0  0  0  0
    6.8570   12.6550    0.6610 H   0  0  0  0  0  0  0  0  0  0  0  0
    7.6340   10.6360    0.9730 C   0  0  0  0  0  0  0  0  0  0  0  0
    6.3730   10.1120    1.2340 O   0  0  0  0  0  0  0  0  0  0  0  0
    6.4530    9.1450    1.4290 H   0  0  0  0  0  0  0  0  0  0  0  0
    6.8140   13.4770   -8.2220 H   0  0  0  0  0  0  0  0  0  0  0  0
   -8.7350    4.5970   -6.3320 H   0  0  0  0  0  0  0  0  0  0  0  0
  1  2  1  0
  1  3  1  0
  3  4  1  6
  3  5  1  0
  3  7  1  0
  5  6  2  0
  7  8  1  0
  7  9  1  0
  7 10  1  0
 10 11  2  0
 10 12  1  0
 12250  1  0
 13 14  1  0
 13 15  1  0
 15 16  1  6
 15 17  1  0
 15 19  1  0
 17 18  2  0
 17 24  1  0
 19 20  1  0
 19 21  1  0
 19 22  1  0
 22 23  1  0
 24 25  1  0
 24 26  1  0
 26 27  1  1
 26 28  1  0
 26 30  1  0
 28 29  2  0
 28 35  1  0
 30 31  1  0
 30 32  1  0
 30 33  1  0
 33 34  1  0
 35 36  1  0
 35 37  1  0
 37 38  1  6
 37 39  1  0
 37 41  1  0
 39 40  2  0
 41 42  1  0
 41 43  1  0
 41 44  1  0
 44 45  2  0
 44 47  1  0
 45 46  1  0
 45 49  1  0
 47 48  1  0
 47 51  2  0
 49 50  1  0
 49 53  2  0
 51 52  1  0
 51 53  1  0
 53 54  1  0
 55 56  1  0
 55 57  1  0
 57 58  1  6
 57 59  1  0
 57 61  1  0
 59 60  2  0
 61 62  1  0
 61 63  1  0
 61 67  1  0
 63 64  1  0
 63 65  1  0
 63 66  1  0
 67 68  1  0
 67 69  1  0
 67 70  1  0
 71 72  1  0
 71 73  1  0
 73 74  1  1
 73 75  1  0
 73 77  1  0
 75 76  2  0
 77 78  1  6
 77 79  1  0
 77 82  1  0
 79 80  1  0
 79 81  1  0
 79 86  1  0
 82 83  1  0
 82 84  1  0
 82 85  1  0
 86 87  1  0
 86 88  1  0
 86 89  1  0
 90 91  1  0
 90 92  1  0
 92 93  1  6
 92 94  1  0
 92 96  1  0
 94 95  2  0
 96 97  1  0
 96 98  1  0
 96 99  1  0
 99100  1  0
 99101  2  0
100103  2  0
101102  1  0
101105  1  0
103104  1  0
103105  1  0
105251  1  0
106107  1  0
106108  1  0
108109  1  1
108110  1  0
108112  1  0
110111  2  0
112113  1  0
112114  1  0
112118  1  0
114115  1  0
114116  1  0
114117  1  0
118119  1  0
118120  1  0
118121  1  0
122123  1  0
122124  1  0
124125  1  1
124126  1  0
124128  1  0
126127  2  0
126132  1  0
128129  1  0
128130  1  0
128131  1  0
132133  1  0
132134  1  0
134135  1  1
134136  1  0
134138  1  0
136137  2  0
136143  1  0
138139  1  0
138140  1  0
138141  1  0
141142  1  0
143144  1  0
143145  1  0
145146  1  1
145147  1  0
145149  1  0
147148  2  0
149150  1  0
149151  1  0
149152  1  0
152153  1  0
152154  1  0
152158  1  0
154155  1  0
154156  1  0
154157  1  0
158159  1  0
158160  1  0
158161  1  0
162163  1  0
162164  1  0
164165  1  6
164166  1  0
164168  1  0
166167  2  0
166184  1  0
168169  1  0
168170  1  0
168171  1  0
171172  1  0
171173  1  0
171174  1  0
174175  1  0
174176  1  0
174177  1  0
177178  1  0
177179  1  0
177180  1  0
180181  1  0
180182  1  0
180183  1  0
184185  1  0
184186  1  0
186187  1  6
186188  1  0
186190  1  0
188189  2  0
190191  1  0
190192  1  0
190193  1  0
193194  2  0
193196  1  0
194195  1  0
194198  1  0
196197  1  0
196200  2  0
198199  1  0
198202  2  0
200201  1  0
200202  1  0
202203  1  0
203204  1  0
205206  1  0
205207  1  0
207208  1  6
207209  1  0
207211  1  0
209210  2  0
211212  1  0
211213  1  0
211214  1  0
214215  1  0
214216  1  0
214217  1  0
217218  1  0
217219  1  0
217220  1  0
220221  1  0
220222  1  0
222223  2  0
222226  1  0
223224  1  0
223225  1  0
226227  1  0
226228  1  0
229230  1  0
229231  1  0
231232  1  1
231233  1  0
231235  1  0
233234  2  0
235236  1  0
235237  1  0
235238  1  0
238239  2  0
238241  1  0
239240  1  0
239243  1  0
241242  1  0
241245  2  0
243244  1  0
243247  2  0
245246  1  0
245247  1  0
247248  1  0
248249  1  0
M  RAD  8   1   2   5   2  13   2  39   2  55   2  59   2  71   2  75   2
M  RAD  8  90   2  94   2 106   2 110   2 122   2 147   2 162   2 188   2
M  CHG  2 180   1 223   1
M  RAD  4 205   2 209   2 229   2 233   2
M  END
$$$$

     RDKit          3D

251245  0  0  0  0  0  0  0  0999 V2000
    8.2390   15.7430  -10.2460 N   0  0  0  0  0  2  0  0  0  0  0  0
    8.4060   14.8450   -9.7480 H   0  0  0  0  0  0  0  0  0  0  0  0
    7.1270   16.5820   -9.8330 C   0  0  2  0  0  0  0  0  0  0  0  0
    6.5240   16.7530  -10.7240 H   0  0  0  0  0  0  0  0  0  0  0  0
    7.5010   17.9630   -9.3590 C   0  0  0  0  0  3  0  0  0  0  0  0
    8.3130   18.1090   -8.4540 O   0  0  0  0  0  0  0  0  0  0  0  0
    6.3630   15.8620   -8.7680 C   0  0  0  0  0  0  0  0  0  0  0  0
    7.0440   15.5910   -7.9610 H   0  0  0  0  0  0  0  0  0  0  0  0
    5.5850   16.5200   -8.3800 H   0  0  0  0  0  0  0  0  0  0  0  0
    5.7360   14.6350   -9.3040 C   0  0  0  0  0  0  0  0  0  0  0  0
    4.8520   14.7920  -10.1880 O   0  0  0  0  0  0  0  0  0  0  0  0
    6.1520   13.5130   -8.8840 O   0  0  0  0  0  0  0  0  0  0  0  0
    1.6580   16.8130  -11.9920 N   0  0  0  0  0  2  0  0  0  0  0  0
    2.3630   16.6600  -11.2430 H   0  0  0  0  0  0  0  0  0  0  0  0
    0.5750   15.8710  -12.1280 C   0  0  2  0  0  0  0  0  0  0  0  0
    0.1290   15.9910  -13.1150 H   0  0  0  0  0  0  0  0  0  0  0  0
   -0.5220   16.1130  -11.1130 C   0  0  0  0  0  0  0  0  0  0  0  0
   -0.2990   16.7340  -10.0760 O   0  0  0  0  0  0  0  0  0  0  0  0
    1.1300   14.4960  -11.9520 C   0  0  0  0  0  0  0  0  0  0  0  0
    0.3140   13.7740  -11.9180 H   0  0  0  0  0  0  0  0  0  0  0  0
    1.6970   14.4460  -11.0220 H   0  0  0  0  0  0  0  0  0  0  0  0
    1.9940   14.1960  -13.0610 O   0  0  0  0  0  0  0  0  0  0  0  0
    2.3660   13.2850  -12.9510 H   0  0  0  0  0  0  0  0  0  0  0  0
   -1.7070   15.5990  -11.3820 N   0  0  0  0  0  0  0  0  0  0  0  0
   -1.8300   15.0390  -12.2500 H   0  0  0  0  0  0  0  0  0  0  0  0
   -2.8500   15.7940  -10.4960 C   0  0  2  0  0  0  0  0  0  0  0  0
   -2.4940   15.6940   -9.4710 H   0  0  0  0  0  0  0  0  0  0  0  0
   -3.9360   14.7420  -10.7100 C   0  0  0  0  0  0  0  0  0  0  0  0
   -4.1170   14.2150  -11.8220 O   0  0  0  0  0  0  0  0  0  0  0  0
   -3.4310   17.1680  -10.7260 C   0  0  0  0  0  0  0  0  0  0  0  0
   -3.6970   17.2780  -11.7770 H   0  0  0  0  0  0  0  0  0  0  0  0
   -2.6920   17.9230  -10.4590 H   0  0  0  0  0  0  0  0  0  0  0  0
   -4.5930   17.3400   -9.9250 O   0  0  0  0  0  0  0  0  0  0  0  0
   -4.9690   18.2430  -10.0800 H   0  0  0  0  0  0  0  0  0  0  0  0
   -4.6520   14.4140   -9.6350 N   0  0  0  0  0  0  0  0  0  0  0  0
   -4.3590   14.7920   -8.7110 H   0  0  0  0  0  0  0  0  0  0  0  0
   -5.8320   13.5460   -9.6910 C   0  0  2  0  0  0  0  0  0  0  0  0
   -5.6450   12.7780  -10.4420 H   0  0  0  0  0  0  0  0  0  0  0  0
   -7.0770   14.3290  -10.1220 C   0  0  0  0  0  3  0  0  0  0  0  0
   -8.0250   13.7390  -10.5890 O   0  0  0  0  0  0  0  0  0  0  0  0
   -6.0610   12.8570   -8.3570 C   0  0  0  0  0  0  0  0  0  0  0  0
   -5.9730   13.6020   -7.5670 H   0  0  0  0  0  0  0  0  0  0  0  0
   -7.0700   12.4440   -8.3540 H   0  0  0  0  0  0  0  0  0  0  0  0
   -5.0730   11.7210   -8.0610 C   0  0  0  0  0  0  0  0  0  0  0  0
   -4.0720   11.8810   -7.1020 C   0  0  0  0  0  0  0  0  0  0  0  0
   -3.9860   12.8270   -6.5670 H   0  0  0  0  0  0  0  0  0  0  0  0
   -5.1740   10.4980   -8.7080 C   0  0  0  0  0  0  0  0  0  0  0  0
   -5.9560   10.3530   -9.4530 H   0  0  0  0  0  0  0  0  0  0  0  0
   -3.1820   10.8480   -6.8190 C   0  0  0  0  0  0  0  0  0  0  0  0
   -2.4060   10.9870   -6.0660 H   0  0  0  0  0  0  0  0  0  0  0  0
   -4.2920    9.4420   -8.4250 C   0  0  0  0  0  0  0  0  0  0  0  0
   -4.4060    8.4830   -8.9310 H   0  0  0  0  0  0  0  0  0  0  0  0
   -3.2860    9.6220   -7.5080 C   0  0  0  0  0  0  0  0  0  0  0  0
   -2.5720    8.8220   -7.3140 H   0  0  0  0  0  0  0  0  0  0  0  0
   -3.3140    5.0230  -13.0570 N   0  0  0  0  0  2  0  0  0  0  0  0
   -4.1400    5.6150  -12.8370 H   0  0  0  0  0  0  0  0  0  0  0  0
   -2.5170    4.4610  -11.9940 C   0  0  2  0  0  0  0  0  0  0  0  0
   -1.7250    3.8470  -12.4230 H   0  0  0  0  0  0  0  0  0  0  0  0
   -3.4380    3.6400  -11.1070 C   0  0  0  0  0  3  0  0  0  0  0  0
   -4.4710    4.1900  -10.6370 O   0  0  0  0  0  0  0  0  0  0  0  0
   -1.8540    5.5840  -11.1350 C   0  0  0  0  0  0  0  0  0  0  0  0
   -2.6490    6.2450  -10.7900 H   0  0  0  0  0  0  0  0  0  0  0  0
   -1.1450    4.9970   -9.9330 C   0  0  0  0  0  0  0  0  0  0  0  0
   -1.8650    4.4610   -9.3150 H   0  0  0  0  0  0  0  0  0  0  0  0
   -0.3700    4.3090  -10.2700 H   0  0  0  0  0  0  0  0  0  0  0  0
   -0.6920    5.8000   -9.3520 H   0  0  0  0  0  0  0  0  0  0  0  0
   -0.8790    6.3820  -11.9530 C   0  0  0  0  0  0  0  0  0  0  0  0
   -0.0980    5.7220  -12.3300 H   0  0  0  0  0  0  0  0  0  0  0  0
   -1.4020    6.8440  -12.7900 H   0  0  0  0  0  0  0  0  0  0  0  0
   -0.4320    7.1570  -11.3300 H   0  0  0  0  0  0  0  0  0  0  0  0
   -4.5210    2.0210   -7.7850 N   0  0  0  0  0  2  0  0  0  0  0  0
   -5.4600    2.1270   -8.2190 H   0  0  0  0  0  0  0  0  0  0  0  0
   -4.3760    2.2860   -6.3400 C   0  0  2  0  0  0  0  0  0  0  0  0
   -3.3700    1.9630   -6.0710 H   0  0  0  0  0  0  0  0  0  0  0  0
   -5.3740    1.4700   -5.5200 C   0  0  0  0  0  3  0  0  0  0  0  0
   -6.6090    1.7400   -5.5300 O   0  0  0  0  0  0  0  0  0  0  0  0
   -4.4620    3.8040   -5.9870 C   0  0  2  0  0  0  0  0  0  0  0  0
   -5.4400    4.1780   -6.2900 H   0  0  0  0  0  0  0  0  0  0  0  0
   -3.3750    4.5860   -6.7450 C   0  0  0  0  0  0  0  0  0  0  0  0
   -2.4260    4.4330   -6.2310 H   0  0  0  0  0  0  0  0  0  0  0  0
   -3.3090    4.1820   -7.7550 H   0  0  0  0  0  0  0  0  0  0  0  0
   -4.3050    4.0130   -4.4580 C   0  0  0  0  0  0  0  0  0  0  0  0
   -5.1000    3.4810   -3.9360 H   0  0  0  0  0  0  0  0  0  0  0  0
   -3.3370    3.6280   -4.1370 H   0  0  0  0  0  0  0  0  0  0  0  0
   -4.3670    5.0770   -4.2300 H   0  0  0  0  0  0  0  0  0  0  0  0
   -3.6210    6.0930   -6.8510 C   0  0  0  0  0  0  0  0  0  0  0  0
   -4.5590    6.2710   -7.3760 H   0  0  0  0  0  0  0  0  0  0  0  0
   -3.6760    6.5220   -5.8510 H   0  0  0  0  0  0  0  0  0  0  0  0
   -2.8020    6.5560   -7.4010 H   0  0  0  0  0  0  0  0  0  0  0  0
   -7.1030    4.9550  -11.2140 N   0  0  0  0  0  2  0  0  0  0  0  0
   -6.1220    4.6450  -11.0650 H   0  0  0  0  0  0  0  0  0  0  0  0
   -7.3690    6.3930  -11.2260 C   0  0  2  0  0  0  0  0  0  0  0  0
   -8.4260    6.5500  -11.4390 H   0  0  0  0  0  0  0  0  0  0  0  0
   -6.5510    7.1110  -12.3230 C   0  0  0  0  0  3  0  0  0  0  0  0
   -5.3670    6.8340  -12.4820 O   0  0  0  0  0  0  0  0  0  0  0  0
   -6.9990    6.9690   -9.8590 C   0  0  0  0  0  0  0  0  0  0  0  0
   -5.9460    6.7590   -9.6690 H   0  0  0  0  0  0  0  0  0  0  0  0
   -7.1550    8.0480   -9.8840 H   0  0  0  0  0  0  0  0  0  0  0  0
   -7.8100    6.3970   -8.7320 C   0  0  0  0  0  0  0  0  0  0  0  0
   -9.1120    6.7880   -8.4820 N   0  0  0  0  0  0  0  0  0  0  0  0
   -7.5200    5.4300   -7.8250 C   0  0  0  0  0  0  0  0  0  0  0  0
   -6.5730    4.9000   -7.7210 H   0  0  0  0  0  0  0  0  0  0  0  0
   -9.5840    6.0790   -7.4730 C   0  0  0  0  0  0  0  0  0  0  0  0
  -10.5840    6.1660   -7.0470 H   0  0  0  0  0  0  0  0  0  0  0  0
   -8.6430    5.2470   -7.0660 N   0  0  0  0  0  0  0  0  0  0  0  0
   -4.3430    9.9870  -13.8600 N   0  0  0  0  0  2  0  0  0  0  0  0
   -3.9430    9.2670  -14.4950 H   0  0  0  0  0  0  0  0  0  0  0  0
   -3.4660   11.0950  -13.4060 C   0  0  2  0  0  0  0  0  0  0  0  0
   -3.9980   11.6020  -12.6010 H   0  0  0  0  0  0  0  0  0  0  0  0
   -3.1980   12.0700  -14.5610 C   0  0  0  0  0  3  0  0  0  0  0  0
   -2.6940   11.6660  -15.6100 O   0  0  0  0  0  0  0  0  0  0  0  0
   -2.1230   10.5980  -12.8370 C   0  0  0  0  0  0  0  0  0  0  0  0
   -1.6160   10.0380  -13.6230 H   0  0  0  0  0  0  0  0  0  0  0  0
   -1.2160   11.7770  -12.4230 C   0  0  0  0  0  0  0  0  0  0  0  0
   -1.0140   12.4010  -13.2930 H   0  0  0  0  0  0  0  0  0  0  0  0
   -1.7190   12.3690  -11.6580 H   0  0  0  0  0  0  0  0  0  0  0  0
   -0.2780   11.3900  -12.0260 H   0  0  0  0  0  0  0  0  0  0  0  0
   -2.3600    9.6900  -11.6480 C   0  0  0  0  0  0  0  0  0  0  0  0
   -2.8940   10.2400  -10.8730 H   0  0  0  0  0  0  0  0  0  0  0  0
   -2.9540    8.8310  -11.9610 H   0  0  0  0  0  0  0  0  0  0  0  0
   -1.4020    9.3470  -11.2570 H   0  0  0  0  0  0  0  0  0  0  0  0
   10.6540   11.3050   -5.5760 N   0  0  0  0  0  2  0  0  0  0  0  0
   10.3920   12.2850   -5.8030 H   0  0  0  0  0  0  0  0  0  0  0  0
   10.0940   10.6720   -4.3490 C   0  0  2  0  0  0  0  0  0  0  0  0
   10.8680    9.9920   -3.9930 H   0  0  0  0  0  0  0  0  0  0  0  0
    8.8430    9.8410   -4.6350 C   0  0  0  0  0  0  0  0  0  0  0  0
    8.3760    9.1070   -3.7350 O   0  0  0  0  0  0  0  0  0  0  0  0
    9.8210   11.6790   -3.2540 C   0  0  0  0  0  0  0  0  0  0  0  0
   10.7510   12.1790   -2.9810 H   0  0  0  0  0  0  0  0  0  0  0  0
    9.1020   12.4160   -3.6110 H   0  0  0  0  0  0  0  0  0  0  0  0
    9.4140   11.1650   -2.3830 H   0  0  0  0  0  0  0  0  0  0  0  0
    8.3280    9.9240   -5.8760 N   0  0  0  0  0  0  0  0  0  0  0  0
    8.8050   10.5390   -6.5650 H   0  0  0  0  0  0  0  0  0  0  0  0
    7.1420    9.2010   -6.3060 C   0  0  2  0  0  0  0  0  0  0  0  0
    6.4000    9.3360   -5.5190 H   0  0  0  0  0  0  0  0  0  0  0  0
    7.4250    7.7530   -6.4980 C   0  0  0  0  0  0  0  0  0  0  0  0
    8.5700    7.2700   -6.4620 O   0  0  0  0  0  0  0  0  0  0  0  0
    6.6180    9.7450   -7.6390 C   0  0  0  0  0  0  0  0  0  0  0  0
    5.6190    9.3460   -7.8150 H   0  0  0  0  0  0  0  0  0  0  0  0
    7.2840    9.4210   -8.4390 H   0  0  0  0  0  0  0  0  0  0  0  0
    6.5530   11.1910   -7.6390 O   0  0  0  0  0  0  0  0  0  0  0  0
    6.2110   11.5050   -8.5140 H   0  0  0  0  0  0  0  0  0  0  0  0
    6.3550    7.0580   -6.8100 N   0  0  0  0  0  0  0  0  0  0  0  0
    5.4610    7.5640   -6.9720 H   0  0  0  0  0  0  0  0  0  0  0  0
    6.3700    5.6400   -6.9350 C   0  0  2  0  0  0  0  0  0  0  0  0
    7.1620    5.1570   -6.3640 H   0  0  0  0  0  0  0  0  0  0  0  0
    6.5790    5.3360   -8.4090 C   0  0  0  0  0  3  0  0  0  0  0  0
    6.0940    6.0730   -9.2600 O   0  0  0  0  0  0  0  0  0  0  0  0
    5.0220    5.1190   -6.4090 C   0  0  0  0  0  0  0  0  0  0  0  0
    4.2350    5.7010   -6.8870 H   0  0  0  0  0  0  0  0  0  0  0  0
    4.9330    4.0750   -6.7090 H   0  0  0  0  0  0  0  0  0  0  0  0
    4.7900    5.1880   -4.8740 C   0  0  0  0  0  0  0  0  0  0  0  0
    5.0100    6.2120   -4.5710 H   0  0  0  0  0  0  0  0  0  0  0  0
    3.3110    4.7880   -4.5700 C   0  0  0  0  0  0  0  0  0  0  0  0
    2.6380    5.4790   -5.0770 H   0  0  0  0  0  0  0  0  0  0  0  0
    3.1300    3.7740   -4.9260 H   0  0  0  0  0  0  0  0  0  0  0  0
    3.1370    4.8330   -3.4950 H   0  0  0  0  0  0  0  0  0  0  0  0
    5.7270    4.2640   -4.0560 C   0  0  0  0  0  0  0  0  0  0  0  0
    5.5710    3.2290   -4.3610 H   0  0  0  0  0  0  0  0  0  0  0  0
    6.7640    4.5460   -4.2400 H   0  0  0  0  0  0  0  0  0  0  0  0
    5.5030    4.3690   -2.9940 H   0  0  0  0  0  0  0  0  0  0  0  0
    5.3050    3.2970  -10.3550 N   0  0  0  0  0  2  0  0  0  0  0  0
    5.3190    3.2100   -9.3190 H   0  0  0  0  0  0  0  0  0  0  0  0
    4.1120    2.9140  -11.0930 C   0  0  2  0  0  0  0  0  0  0  0  0
    4.3770    2.2010  -11.8730 H   0  0  0  0  0  0  0  0  0  0  0  0
    3.5250    4.1710  -11.7290 C   0  0  0  0  0  0  0  0  0  0  0  0
    2.8290    4.0740  -12.7370 O   0  0  0  0  0  0  0  0  0  0  0  0
    3.0890    2.1810  -10.2000 C   0  0  0  0  0  0  0  0  0  0  0  0
    2.2390    1.8870  -10.8160 H   0  0  0  0  0  0  0  0  0  0  0  0
    3.5630    1.2900   -9.7890 H   0  0  0  0  0  0  0  0  0  0  0  0
    2.5850    3.0260   -9.0590 C   0  0  0  0  0  0  0  0  0  0  0  0
    3.2850    2.9380   -8.2280 H   0  0  0  0  0  0  0  0  0  0  0  0
    2.5440    4.0640   -9.3890 H   0  0  0  0  0  0  0  0  0  0  0  0
    1.2080    2.6210   -8.5730 C   0  0  0  0  0  0  0  0  0  0  0  0
    0.7530    3.4710   -8.0650 H   0  0  0  0  0  0  0  0  0  0  0  0
    0.6000    2.3470   -9.4350 H   0  0  0  0  0  0  0  0  0  0  0  0
    1.2480    1.4500   -7.6160 C   0  0  0  0  0  0  0  0  0  0  0  0
    2.1300    1.5540   -6.9850 H   0  0  0  0  0  0  0  0  0  0  0  0
    1.3270    0.5330   -8.2000 H   0  0  0  0  0  0  0  0  0  0  0  0
    0.0220    1.3380   -6.7120 N   0  0  0  0  0  4  0  0  0  0  0  0
   -0.0630    2.2000   -6.1370 H   0  0  0  0  0  0  0  0  0  0  0  0
   -0.8300    1.2250   -7.2980 H   0  0  0  0  0  0  0  0  0  0  0  0
    0.1270    0.5130   -6.0880 H   0  0  0  0  0  0  0  0  0  0  0  0
    3.8150    5.3320  -11.1570 N   0  0  0  0  0  0  0  0  0  0  0  0
    4.3440    5.3460  -10.2620 H   0  0  0  0  0  0  0  0  0  0  0  0
    3.4060    6.5700  -11.7600 C   0  0  2  0  0  0  0  0  0  0  0  0
    2.6010    6.3500  -12.4610 H   0  0  0  0  0  0  0  0  0  0  0  0
    4.5830    7.2000  -12.5340 C   0  0  0  0  0  3  0  0  0  0  0  0
    4.3900    7.6850  -13.6440 O   0  0  0  0  0  0  0  0  0  0  0  0
    2.8330    7.5740  -10.6990 C   0  0  0  0  0  0  0  0  0  0  0  0
    1.7520    7.4410  -10.6510 H   0  0  0  0  0  0  0  0  0  0  0  0
    3.2710    7.3350   -9.7300 H   0  0  0  0  0  0  0  0  0  0  0  0
    3.1220    9.0400  -11.0060 C   0  0  0  0  0  0  0  0  0  0  0  0
    2.4190    9.6990  -11.9770 C   0  0  0  0  0  0  0  0  0  0  0  0
    1.6340    9.1740  -12.5200 H   0  0  0  0  0  0  0  0  0  0  0  0
    4.1580    9.7400  -10.3510 C   0  0  0  0  0  0  0  0  0  0  0  0
    4.7460    9.2230   -9.5930 H   0  0  0  0  0  0  0  0  0  0  0  0
    2.7000   11.0760  -12.2930 C   0  0  0  0  0  0  0  0  0  0  0  0
    2.1060   11.5870  -13.0510 H   0  0  0  0  0  0  0  0  0  0  0  0
    4.4620   11.1120  -10.6520 C   0  0  0  0  0  0  0  0  0  0  0  0
    5.2550   11.6380  -10.1200 H   0  0  0  0  0  0  0  0  0  0  0  0
    3.7150   11.7570  -11.6450 C   0  0  0  0  0  0  0  0  0  0  0  0
    3.9630   13.0750  -12.0290 O   0  0  0  0  0  0  0  0  0  0  0  0
    3.3260   13.3360  -12.7410 H   0  0  0  0  0  0  0  0  0  0  0  0
   10.9780    6.3050   -4.9480 N   0  0  0  0  0  2  0  0  0  0  0  0
   10.1880    5.9880   -5.5450 H   0  0  0  0  0  0  0  0  0  0  0  0
   10.7200    6.5580   -3.5270 C   0  0  2  0  0  0  0  0  0  0  0  0
   10.9690    7.6020   -3.3390 H   0  0  0  0  0  0  0  0  0  0  0  0
   11.6250    5.7190   -2.6400 C   0  0  0  0  0  3  0  0  0  0  0  0
   12.2670    6.2920   -1.7970 O   0  0  0  0  0  0  0  0  0  0  0  0
    9.2040    6.4100   -3.1540 C   0  0  0  0  0  0  0  0  0  0  0  0
    8.6640    7.2090   -3.6620 H   0  0  0  0  0  0  0  0  0  0  0  0
    8.8680    5.4460   -3.5360 H   0  0  0  0  0  0  0  0  0  0  0  0
    8.8060    6.4750   -1.6050 C   0  0  0  0  0  0  0  0  0  0  0  0
    9.0730    5.5270   -1.1380 H   0  0  0  0  0  0  0  0  0  0  0  0
    9.3690    7.2810   -1.1350 H   0  0  0  0  0  0  0  0  0  0  0  0
    7.2710    6.7340   -1.3710 C   0  0  0  0  0  0  0  0  0  0  0  0
    6.9860    6.4380   -0.3620 H   0  0  0  0  0  0  0  0  0  0  0  0
    6.6770    6.1740   -2.0940 H   0  0  0  0  0  0  0  0  0  0  0  0
    7.0740    8.1750   -1.5550 N   0  0  0  0  0  0  0  0  0  0  0  0
    7.9010    8.7810   -1.3810 H   0  0  0  0  0  0  0  0  0  0  0  0
    5.9530    8.7950   -1.9200 C   0  0  0  0  0  0  0  0  0  0  0  0
    4.8300    8.1290   -2.1550 N   0  0  0  0  0  4  0  0  0  0  0  0
    4.8090    7.0940   -2.0560 H   0  0  0  0  0  0  0  0  0  0  0  0
    3.9710    8.6420   -2.4390 H   0  0  0  0  0  0  0  0  0  0  0  0
    5.9750   10.1110   -2.0680 N   0  0  0  0  0  0  0  0  0  0  0  0
    6.8550   10.6390   -1.9000 H   0  0  0  0  0  0  0  0  0  0  0  0
    5.1120   10.6170   -2.3520 H   0  0  0  0  0  0  0  0  0  0  0  0
   11.6800   13.6970    2.1500 N   0  0  0  0  0  2  0  0  0  0  0  0
   11.0060   14.3750    1.7400 H   0  0  0  0  0  0  0  0  0  0  0  0
   12.3750   12.7460    1.2760 C   0  0  2  0  0  0  0  0  0  0  0  0
   12.5890   11.8420    1.8460 H   0  0  0  0  0  0  0  0  0  0  0  0
   13.6730   13.4000    0.7880 C   0  0  0  0  0  3  0  0  0  0  0  0
   13.6690   14.3550    0.0170 O   0  0  0  0  0  0  0  0  0  0  0  0
   11.5200   12.3200    0.0890 C   0  0  0  0  0  0  0  0  0  0  0  0
   11.3570   13.1990   -0.5350 H   0  0  0  0  0  0  0  0  0  0  0  0
   12.0810   11.5750   -0.4740 H   0  0  0  0  0  0  0  0  0  0  0  0
   10.1640   11.7270    0.4160 C   0  0  0  0  0  0  0  0  0  0  0  0
   10.0310   10.3500    0.7370 C   0  0  0  0  0  0  0  0  0  0  0  0
   10.9170    9.7150    0.7680 H   0  0  0  0  0  0  0  0  0  0  0  0
    9.0060   12.5450    0.3790 C   0  0  0  0  0  0  0  0  0  0  0  0
    9.1020   13.6000    0.1210 H   0  0  0  0  0  0  0  0  0  0  0  0
    8.7740    9.8000    1.0140 C   0  0  0  0  0  0  0  0  0  0  0  0
    8.6750    8.7420    1.2580 H   0  0  0  0  0  0  0  0  0  0  0  0
    7.7410   12.0170    0.6690 C   0  0  0  0  0  0  0  0  0  0  0  0
    6.8570   12.6550    0.6610 H   0  0  0  0  0  0  0  0  0  0  0  0
    7.6340   10.6360    0.9730 C   0  0  0  0  0  0  0  0  0  0  0  0
    6.3730   10.1120    1.2340 O   0  0  0  0  0  0  0  0  0  0  0  0
    6.4530    9.1450    1.4290 H   0  0  0  0  0  0  0  0  0  0  0  0
    6.8140   13.4770   -8.2220 H   0  0  0  0  0  0  0  0  0  0  0  0
   -8.7350    4.5970   -6.3320 H   0  0  0  0  0  0  0  0  0  0  0  0
  1  2  1  0
  1  3  1  0
  3  4  1  6
  3  5  1  0
  3  7  1  0
  5  6  2  0
  7  8  1  0
  7  9  1  0
  7 10  1  0
 10 11  2  0
 10 12  1  0
 12250  1  0
 13 14  1  0
 13 15  1  0
 15 16  1  6
 15 17  1  0
 15 19  1  0
 17 18  2  0
 17 24  1  0
 19 20  1  0
 19 21  1  0
 19 22  1  0
 22 23  1  0
 24 25  1  0
 24 26  1  0
 26 27  1  1
 26 28  1  0
 26 30  1  0
 28 29  2  0
 28 35  1  0
 30 31  1  0
 30 32  1  0
 30 33  1  0
 33 34  1  0
 35 36  1  0
 35 37  1  0
 37 38  1  6
 37 39  1  0
 37 41  1  0
 39 40  2  0
 41 42  1  0
 41 43  1  0
 41 44  1  0
 44 45  2  0
 44 47  1  0
 45 46  1  0
 45 49  1  0
 47 48  1  0
 47 51  2  0
 49 50  1  0
 49 53  2  0
 51 52  1  0
 51 53  1  0
 53 54  1  0
 55 56  1  0
 55 57  1  0
 57 58  1  6
 57 59  1  0
 57 61  1  0
 59 60  2  0
 61 62  1  0
 61 63  1  0
 61 67  1  0
 63 64  1  0
 63 65  1  0
 63 66  1  0
 67 68  1  0
 67 69  1  0
 67 70  1  0
 71 72  1  0
 71 73  1  0
 73 74  1  1
 73 75  1  0
 73 77  1  0
 75 76  2  0
 77 78  1  6
 77 79  1  0
 77 82  1  0
 79 80  1  0
 79 81  1  0
 79 86  1  0
 82 83  1  0
 82 84  1  0
 82 85  1  0
 86 87  1  0
 86 88  1  0
 86 89  1  0
 90 91  1  0
 90 92  1  0
 92 93  1  6
 92 94  1  0
 92 96  1  0
 94 95  2  0
 96 97  1  0
 96 98  1  0
 96 99  1  0
 99100  1  0
 99101  2  0
100103  2  0
101102  1  0
101105  1  0
103104  1  0
103105  1  0
105251  1  0
106107  1  0
106108  1  0
108109  1  1
108110  1  0
108112  1  0
110111  2  0
112113  1  0
112114  1  0
112118  1  0
114115  1  0
114116  1  0
114117  1  0
118119  1  0
118120  1  0
118121  1  0
122123  1  0
122124  1  0
124125  1  1
124126  1  0
124128  1  0
126127  2  0
126132  1  0
128129  1  0
128130  1  0
128131  1  0
132133  1  0
132134  1  0
134135  1  1
134136  1  0
134138  1  0
136137  2  0
136143  1  0
138139  1  0
138140  1  0
138141  1  0
141142  1  0
143144  1  0
143145  1  0
145146  1  1
145147  1  0
145149  1  0
147148  2  0
149150  1  0
149151  1  0
149152  1  0
152153  1  0
152154  1  0
152158  1  0
154155  1  0
154156  1  0
154157  1  0
158159  1  0
158160  1  0
158161  1  0
162163  1  0
162164  1  0
164165  1  6
164166  1  0
164168  1  0
166167  2  0
166184  1  0
168169  1  0
168170  1  0
168171  1  0
171172  1  0
171173  1  0
171174  1  0
174175  1  0
174176  1  0
174177  1  0
177178  1  0
177179  1  0
177180  1  0
180181  1  0
180182  1  0
180183  1  0
184185  1  0
184186  1  0
186187  1  6
186188  1  0
186190  1  0
188189  2  0
190191  1  0
190192  1  0
190193  1  0
193194  2  0
193196  1  0
194195  1  0
194198  1  0
196197  1  0
196200  2  0
198199  1  0
198202  2  0
200201  1  0
200202  1  0
202203  1  0
203204  1  0
205206  1  0
205207  1  0
207208  1  6
207209  1  0
207211  1  0
209210  2  0
211212  1  0
211213  1  0
211214  1  0
214215  1  0
214216  1  0
214217  1  0
217218  1  0
217219  1  0
217220  1  0
220221  1  0
220222  1  0
222223  2  0
222226  1  0
223224  1  0
223225  1  0
226227  1  0
226228  1  0
229230  1  0
229231  1  0
231232  1  1
231233  1  0
231235  1  0
233234  2  0
235236  1  0
235237  1  0
235238  1  0
238239  2  0
238241  1  0
239240  1  0
239243  1  0
241242  1  0
241245  2  0
243244  1  0
243247  2  0
245246  1  0
245247  1  0
247248  1  0
248249  1  0
M  RAD  8   1   2   5   2  13   2  39   2  55   2  59   2  71   2  75   2
M  RAD  8  90   2  94   2 106   2 110   2 122   2 147   2 162   2 188   2
M  CHG  2 180   1 223   1
M  RAD  4 205   2 209   2 229   2 233   2
M  END
$$$$

     RDKit          3D

251245  0  0  0  0  0  0  0  0999 V2000
    8.2390   15.7430  -10.2460 N   0  0  0  0  0  2  0  0  0  0  0  0
    8.4060   14.8450   -9.7480 H   0  0  0  0  0  0  0  0  0  0  0  0
    7.1270   16.5820   -9.8330 C   0  0  2  0  0  0  0  0  0  0  0  0
    6.5240   16.7530  -10.7240 H   0  0  0  0  0  0  0  0  0  0  0  0
    7.5010   17.9630   -9.3590 C   0  0  0  0  0  3  0  0  0  0  0  0
    8.3130   18.1090   -8.4540 O   0  0  0  0  0  0  0  0  0  0  0  0
    6.3630   15.8620   -8.7680 C   0  0  0  0  0  0  0  0  0  0  0  0
    7.0440   15.5910   -7.9610 H   0  0  0  0  0  0  0  0  0  0  0  0
    5.5850   16.5200   -8.3800 H   0  0  0  0  0  0  0  0  0  0  0  0
    5.7360   14.6350   -9.3040 C   0  0  0  0  0  0  0  0  0  0  0  0
    4.8520   14.7920  -10.1880 O   0  0  0  0  0  0  0  0  0  0  0  0
    6.1520   13.5130   -8.8840 O   0  0  0  0  0  0  0  0  0  0  0  0
    1.6580   16.8130  -11.9920 N   0  0  0  0  0  2  0  0  0  0  0  0
    2.3630   16.6600  -11.2430 H   0  0  0  0  0  0  0  0  0  0  0  0
    0.5750   15.8710  -12.1280 C   0  0  2  0  0  0  0  0  0  0  0  0
    0.1290   15.9910  -13.1150 H   0  0  0  0  0  0  0  0  0  0  0  0
   -0.5220   16.1130  -11.1130 C   0  0  0  0  0  0  0  0  0  0  0  0
   -0.2990   16.7340  -10.0760 O   0  0  0  0  0  0  0  0  0  0  0  0
    1.1300   14.4960  -11.9520 C   0  0  0  0  0  0  0  0  0  0  0  0
    0.3140   13.7740  -11.9180 H   0  0  0  0  0  0  0  0  0  0  0  0
    1.6970   14.4460  -11.0220 H   0  0  0  0  0  0  0  0  0  0  0  0
    1.9940   14.1960  -13.0610 O   0  0  0  0  0  0  0  0  0  0  0  0
    2.3660   13.2850  -12.9510 H   0  0  0  0  0  0  0  0  0  0  0  0
   -1.7070   15.5990  -11.3820 N   0  0  0  0  0  0  0  0  0  0  0  0
   -1.8300   15.0390  -12.2500 H   0  0  0  0  0  0  0  0  0  0  0  0
   -2.8500   15.7940  -10.4960 C   0  0  2  0  0  0  0  0  0  0  0  0
   -2.4940   15.6940   -9.4710 H   0  0  0  0  0  0  0  0  0  0  0  0
   -3.9360   14.7420  -10.7100 C   0  0  0  0  0  0  0  0  0  0  0  0
   -4.1170   14.2150  -11.8220 O   0  0  0  0  0  0  0  0  0  0  0  0
   -3.4310   17.1680  -10.7260 C   0  0  0  0  0  0  0  0  0  0  0  0
   -3.6970   17.2780  -11.7770 H   0  0  0  0  0  0  0  0  0  0  0  0
   -2.6920   17.9230  -10.4590 H   0  0  0  0  0  0  0  0  0  0  0  0
   -4.5930   17.3400   -9.9250 O   0  0  0  0  0  0  0  0  0  0  0  0
   -4.9690   18.2430  -10.0800 H   0  0  0  0  0  0  0  0  0  0  0  0
   -4.6520   14.4140   -9.6350 N   0  0  0  0  0  0  0  0  0  0  0  0
   -4.3590   14.7920   -8.7110 H   0  0  0  0  0  0  0  0  0  0  0  0
   -5.8320   13.5460   -9.6910 C   0  0  2  0  0  0  0  0  0  0  0  0
   -5.6450   12.7780  -10.4420 H   0  0  0  0  0  0  0  0  0  0  0  0
   -7.0770   14.3290  -10.1220 C   0  0  0  0  0  3  0  0  0  0  0  0
   -8.0250   13.7390  -10.5890 O   0  0  0  0  0  0  0  0  0  0  0  0
   -6.0610   12.8570   -8.3570 C   0  0  0  0  0  0  0  0  0  0  0  0
   -5.9730   13.6020   -7.5670 H   0  0  0  0  0  0  0  0  0  0  0  0
   -7.0700   12.4440   -8.3540 H   0  0  0  0  0  0  0  0  0  0  0  0
   -5.0730   11.7210   -8.0610 C   0  0  0  0  0  0  0  0  0  0  0  0
   -4.0720   11.8810   -7.1020 C   0  0  0  0  0  0  0  0  0  0  0  0
   -3.9860   12.8270   -6.5670 H   0  0  0  0  0  0  0  0  0  0  0  0
   -5.1740   10.4980   -8.7080 C   0  0  0  0  0  0  0  0  0  0  0  0
   -5.9560   10.3530   -9.4530 H   0  0  0  0  0  0  0  0  0  0  0  0
   -3.1820   10.8480   -6.8190 C   0  0  0  0  0  0  0  0  0  0  0  0
   -2.4060   10.9870   -6.0660 H   0  0  0  0  0  0  0  0  0  0  0  0
   -4.2920    9.4420   -8.4250 C   0  0  0  0  0  0  0  0  0  0  0  0
   -4.4060    8.4830   -8.9310 H   0  0  0  0  0  0  0  0  0  0  0  0
   -3.2860    9.6220   -7.5080 C   0  0  0  0  0  0  0  0  0  0  0  0
   -2.5720    8.8220   -7.3140 H   0  0  0  0  0  0  0  0  0  0  0  0
   -3.3140    5.0230  -13.0570 N   0  0  0  0  0  2  0  0  0  0  0  0
   -4.1400    5.6150  -12.8370 H   0  0  0  0  0  0  0  0  0  0  0  0
   -2.5170    4.4610  -11.9940 C   0  0  2  0  0  0  0  0  0  0  0  0
   -1.7250    3.8470  -12.4230 H   0  0  0  0  0  0  0  0  0  0  0  0
   -3.4380    3.6400  -11.1070 C   0  0  0  0  0  3  0  0  0  0  0  0
   -4.4710    4.1900  -10.6370 O   0  0  0  0  0  0  0  0  0  0  0  0
   -1.8540    5.5840  -11.1350 C   0  0  0  0  0  0  0  0  0  0  0  0
   -2.6490    6.2450  -10.7900 H   0  0  0  0  0  0  0  0  0  0  0  0
   -1.1450    4.9970   -9.9330 C   0  0  0  0  0  0  0  0  0  0  0  0
   -1.8650    4.4610   -9.3150 H   0  0  0  0  0  0  0  0  0  0  0  0
   -0.3700    4.3090  -10.2700 H   0  0  0  0  0  0  0  0  0  0  0  0
   -0.6920    5.8000   -9.3520 H   0  0  0  0  0  0  0  0  0  0  0  0
   -0.8790    6.3820  -11.9530 C   0  0  0  0  0  0  0  0  0  0  0  0
   -0.0980    5.7220  -12.3300 H   0  0  0  0  0  0  0  0  0  0  0  0
   -1.4020    6.8440  -12.7900 H   0  0  0  0  0  0  0  0  0  0  0  0
   -0.4320    7.1570  -11.3300 H   0  0  0  0  0  0  0  0  0  0  0  0
   -4.5210    2.0210   -7.7850 N   0  0  0  0  0  2  0  0  0  0  0  0
   -5.4600    2.1270   -8.2190 H   0  0  0  0  0  0  0  0  0  0  0  0
   -4.3760    2.2860   -6.3400 C   0  0  2  0  0  0  0  0  0  0  0  0
   -3.3700    1.9630   -6.0710 H   0  0  0  0  0  0  0  0  0  0  0  0
   -5.3740    1.4700   -5.5200 C   0  0  0  0  0  3  0  0  0  0  0  0
   -6.6090    1.7400   -5.5300 O   0  0  0  0  0  0  0  0  0  0  0  0
   -4.4620    3.8040   -5.9870 C   0  0  2  0  0  0  0  0  0  0  0  0
   -5.4400    4.1780   -6.2900 H   0  0  0  0  0  0  0  0  0  0  0  0
   -3.3750    4.5860   -6.7450 C   0  0  0  0  0  0  0  0  0  0  0  0
   -2.4260    4.4330   -6.2310 H   0  0  0  0  0  0  0  0  0  0  0  0
   -3.3090    4.1820   -7.7550 H   0  0  0  0  0  0  0  0  0  0  0  0
   -4.3050    4.0130   -4.4580 C   0  0  0  0  0  0  0  0  0  0  0  0
   -5.1000    3.4810   -3.9360 H   0  0  0  0  0  0  0  0  0  0  0  0
   -3.3370    3.6280   -4.1370 H   0  0  0  0  0  0  0  0  0  0  0  0
   -4.3670    5.0770   -4.2300 H   0  0  0  0  0  0  0  0  0  0  0  0
   -3.6210    6.0930   -6.8510 C   0  0  0  0  0  0  0  0  0  0  0  0
   -4.5590    6.2710   -7.3760 H   0  0  0  0  0  0  0  0  0  0  0  0
   -3.6760    6.5220   -5.8510 H   0  0  0  0  0  0  0  0  0  0  0  0
   -2.8020    6.5560   -7.4010 H   0  0  0  0  0  0  0  0  0  0  0  0
   -7.1030    4.9550  -11.2140 N   0  0  0  0  0  2  0  0  0  0  0  0
   -6.1220    4.6450  -11.0650 H   0  0  0  0  0  0  0  0  0  0  0  0
   -7.3690    6.3930  -11.2260 C   0  0  2  0  0  0  0  0  0  0  0  0
   -8.4260    6.5500  -11.4390 H   0  0  0  0  0  0  0  0  0  0  0  0
   -6.5510    7.1110  -12.3230 C   0  0  0  0  0  3  0  0  0  0  0  0
   -5.3670    6.8340  -12.4820 O   0  0  0  0  0  0  0  0  0  0  0  0
   -6.9990    6.9690   -9.8590 C   0  0  0  0  0  0  0  0  0  0  0  0
   -5.9460    6.7590   -9.6690 H   0  0  0  0  0  0  0  0  0  0  0  0
   -7.1550    8.0480   -9.8840 H   0  0  0  0  0  0  0  0  0  0  0  0
   -7.8100    6.3970   -8.7320 C   0  0  0  0  0  0  0  0  0  0  0  0
   -9.1120    6.7880   -8.4820 N   0  0  0  0  0  0  0  0  0  0  0  0
   -7.5200    5.4300   -7.8250 C   0  0  0  0  0  0  0  0  0  0  0  0
   -6.5730    4.9000   -7.7210 H   0  0  0  0  0  0  0  0  0  0  0  0
   -9.5840    6.0790   -7.4730 C   0  0  0  0  0  0  0  0  0  0  0  0
  -10.5840    6.1660   -7.0470 H   0  0  0  0  0  0  0  0  0  0  0  0
   -8.6430    5.2470   -7.0660 N   0  0  0  0  0  0  0  0  0  0  0  0
   -4.3430    9.9870  -13.8600 N   0  0  0  0  0  2  0  0  0  0  0  0
   -3.9430    9.2670  -14.4950 H   0  0  0  0  0  0  0  0  0  0  0  0
   -3.4660   11.0950  -13.4060 C   0  0  2  0  0  0  0  0  0  0  0  0
   -3.9980   11.6020  -12.6010 H   0  0  0  0  0  0  0  0  0  0  0  0
   -3.1980   12.0700  -14.5610 C   0  0  0  0  0  3  0  0  0  0  0  0
   -2.6940   11.6660  -15.6100 O   0  0  0  0  0  0  0  0  0  0  0  0
   -2.1230   10.5980  -12.8370 C   0  0  0  0  0  0  0  0  0  0  0  0
   -1.6160   10.0380  -13.6230 H   0  0  0  0  0  0  0  0  0  0  0  0
   -1.2160   11.7770  -12.4230 C   0  0  0  0  0  0  0  0  0  0  0  0
   -1.0140   12.4010  -13.2930 H   0  0  0  0  0  0  0  0  0  0  0  0
   -1.7190   12.3690  -11.6580 H   0  0  0  0  0  0  0  0  0  0  0  0
   -0.2780   11.3900  -12.0260 H   0  0  0  0  0  0  0  0  0  0  0  0
   -2.3600    9.6900  -11.6480 C   0  0  0  0  0  0  0  0  0  0  0  0
   -2.8940   10.2400  -10.8730 H   0  0  0  0  0  0  0  0  0  0  0  0
   -2.9540    8.8310  -11.9610 H   0  0  0  0  0  0  0  0  0  0  0  0
   -1.4020    9.3470  -11.2570 H   0  0  0  0  0  0  0  0  0  0  0  0
   10.6540   11.3050   -5.5760 N   0  0  0  0  0  2  0  0  0  0  0  0
   10.3920   12.2850   -5.8030 H   0  0  0  0  0  0  0  0  0  0  0  0
   10.0940   10.6720   -4.3490 C   0  0  2  0  0  0  0  0  0  0  0  0
   10.8680    9.9920   -3.9930 H   0  0  0  0  0  0  0  0  0  0  0  0
    8.8430    9.8410   -4.6350 C   0  0  0  0  0  0  0  0  0  0  0  0
    8.3760    9.1070   -3.7350 O   0  0  0  0  0  0  0  0  0  0  0  0
    9.8210   11.6790   -3.2540 C   0  0  0  0  0  0  0  0  0  0  0  0
   10.7510   12.1790   -2.9810 H   0  0  0  0  0  0  0  0  0  0  0  0
    9.1020   12.4160   -3.6110 H   0  0  0  0  0  0  0  0  0  0  0  0
    9.4140   11.1650   -2.3830 H   0  0  0  0  0  0  0  0  0  0  0  0
    8.3280    9.9240   -5.8760 N   0  0  0  0  0  0  0  0  0  0  0  0
    8.8050   10.5390   -6.5650 H   0  0  0  0  0  0  0  0  0  0  0  0
    7.1420    9.2010   -6.3060 C   0  0  2  0  0  0  0  0  0  0  0  0
    6.4000    9.3360   -5.5190 H   0  0  0  0  0  0  0  0  0  0  0  0
    7.4250    7.7530   -6.4980 C   0  0  0  0  0  0  0  0  0  0  0  0
    8.5700    7.2700   -6.4620 O   0  0  0  0  0  0  0  0  0  0  0  0
    6.6180    9.7450   -7.6390 C   0  0  0  0  0  0  0  0  0  0  0  0
    5.6190    9.3460   -7.8150 H   0  0  0  0  0  0  0  0  0  0  0  0
    7.2840    9.4210   -8.4390 H   0  0  0  0  0  0  0  0  0  0  0  0
    6.5530   11.1910   -7.6390 O   0  0  0  0  0  0  0  0  0  0  0  0
    6.2110   11.5050   -8.5140 H   0  0  0  0  0  0  0  0  0  0  0  0
    6.3550    7.0580   -6.8100 N   0  0  0  0  0  0  0  0  0  0  0  0
    5.4610    7.5640   -6.9720 H   0  0  0  0  0  0  0  0  0  0  0  0
    6.3700    5.6400   -6.9350 C   0  0  2  0  0  0  0  0  0  0  0  0
    7.1620    5.1570   -6.3640 H   0  0  0  0  0  0  0  0  0  0  0  0
    6.5790    5.3360   -8.4090 C   0  0  0  0  0  3  0  0  0  0  0  0
    6.0940    6.0730   -9.2600 O   0  0  0  0  0  0  0  0  0  0  0  0
    5.0220    5.1190   -6.4090 C   0  0  0  0  0  0  0  0  0  0  0  0
    4.2350    5.7010   -6.8870 H   0  0  0  0  0  0  0  0  0  0  0  0
    4.9330    4.0750   -6.7090 H   0  0  0  0  0  0  0  0  0  0  0  0
    4.7900    5.1880   -4.8740 C   0  0  0  0  0  0  0  0  0  0  0  0
    5.0100    6.2120   -4.5710 H   0  0  0  0  0  0  0  0  0  0  0  0
    3.3110    4.7880   -4.5700 C   0  0  0  0  0  0  0  0  0  0  0  0
    2.6380    5.4790   -5.0770 H   0  0  0  0  0  0  0  0  0  0  0  0
    3.1300    3.7740   -4.9260 H   0  0  0  0  0  0  0  0  0  0  0  0
    3.1370    4.8330   -3.4950 H   0  0  0  0  0  0  0  0  0  0  0  0
    5.7270    4.2640   -4.0560 C   0  0  0  0  0  0  0  0  0  0  0  0
    5.5710    3.2290   -4.3610 H   0  0  0  0  0  0  0  0  0  0  0  0
    6.7640    4.5460   -4.2400 H   0  0  0  0  0  0  0  0  0  0  0  0
    5.5030    4.3690   -2.9940 H   0  0  0  0  0  0  0  0  0  0  0  0
    5.3050    3.2970  -10.3550 N   0  0  0  0  0  2  0  0  0  0  0  0
    5.3190    3.2100   -9.3190 H   0  0  0  0  0  0  0  0  0  0  0  0
    4.1120    2.9140  -11.0930 C   0  0  2  0  0  0  0  0  0  0  0  0
    4.3770    2.2010  -11.8730 H   0  0  0  0  0  0  0  0  0  0  0  0
    3.5250    4.1710  -11.7290 C   0  0  0  0  0  0  0  0  0  0  0  0
    2.8290    4.0740  -12.7370 O   0  0  0  0  0  0  0  0  0  0  0  0
    3.0890    2.1810  -10.2000 C   0  0  0  0  0  0  0  0  0  0  0  0
    2.2390    1.8870  -10.8160 H   0  0  0  0  0  0  0  0  0  0  0  0
    3.5630    1.2900   -9.7890 H   0  0  0  0  0  0  0  0  0  0  0  0
    2.5850    3.0260   -9.0590 C   0  0  0  0  0  0  0  0  0  0  0  0
    3.2850    2.9380   -8.2280 H   0  0  0  0  0  0  0  0  0  0  0  0
    2.5440    4.0640   -9.3890 H   0  0  0  0  0  0  0  0  0  0  0  0
    1.2080    2.6210   -8.5730 C   0  0  0  0  0  0  0  0  0  0  0  0
    0.7530    3.4710   -8.0650 H   0  0  0  0  0  0  0  0  0  0  0  0
    0.6000    2.3470   -9.4350 H   0  0  0  0  0  0  0  0  0  0  0  0
    1.2480    1.4500   -7.6160 C   0  0  0  0  0  0  0  0  0  0  0  0
    2.1300    1.5540   -6.9850 H   0  0  0  0  0  0  0  0  0  0  0  0
    1.3270    0.5330   -8.2000 H   0  0  0  0  0  0  0  0  0  0  0  0
    0.0220    1.3380   -6.7120 N   0  0  0  0  0  4  0  0  0  0  0  0
   -0.0630    2.2000   -6.1370 H   0  0  0  0  0  0  0  0  0  0  0  0
   -0.8300    1.2250   -7.2980 H   0  0  0  0  0  0  0  0  0  0  0  0
    0.1270    0.5130   -6.0880 H   0  0  0  0  0  0  0  0  0  0  0  0
    3.8150    5.3320  -11.1570 N   0  0  0  0  0  0  0  0  0  0  0  0
    4.3440    5.3460  -10.2620 H   0  0  0  0  0  0  0  0  0  0  0  0
    3.4060    6.5700  -11.7600 C   0  0  2  0  0  0  0  0  0  0  0  0
    2.6010    6.3500  -12.4610 H   0  0  0  0  0  0  0  0  0  0  0  0
    4.5830    7.2000  -12.5340 C   0  0  0  0  0  3  0  0  0  0  0  0
    4.3900    7.6850  -13.6440 O   0  0  0  0  0  0  0  0  0  0  0  0
    2.8330    7.5740  -10.6990 C   0  0  0  0  0  0  0  0  0  0  0  0
    1.7520    7.4410  -10.6510 H   0  0  0  0  0  0  0  0  0  0  0  0
    3.2710    7.3350   -9.7300 H   0  0  0  0  0  0  0  0  0  0  0  0
    3.1220    9.0400  -11.0060 C   0  0  0  0  0  0  0  0  0  0  0  0
    2.4190    9.6990  -11.9770 C   0  0  0  0  0  0  0  0  0  0  0  0
    1.6340    9.1740  -12.5200 H   0  0  0  0  0  0  0  0  0  0  0  0
    4.1580    9.7400  -10.3510 C   0  0  0  0  0  0  0  0  0  0  0  0
    4.7460    9.2230   -9.5930 H   0  0  0  0  0  0  0  0  0  0  0  0
    2.7000   11.0760  -12.2930 C   0  0  0  0  0  0  0  0  0  0  0  0
    2.1060   11.5870  -13.0510 H   0  0  0  0  0  0  0  0  0  0  0  0
    4.4620   11.1120  -10.6520 C   0  0  0  0  0  0  0  0  0  0  0  0
    5.2550   11.6380  -10.1200 H   0  0  0  0  0  0  0  0  0  0  0  0
    3.7150   11.7570  -11.6450 C   0  0  0  0  0  0  0  0  0  0  0  0
    3.9630   13.0750  -12.0290 O   0  0  0  0  0  0  0  0  0  0  0  0
    3.3260   13.3360  -12.7410 H   0  0  0  0  0  0  0  0  0  0  0  0
   10.9780    6.3050   -4.9480 N   0  0  0  0  0  2  0  0  0  0  0  0
   10.1880    5.9880   -5.5450 H   0  0  0  0  0  0  0  0  0  0  0  0
   10.7200    6.5580   -3.5270 C   0  0  2  0  0  0  0  0  0  0  0  0
   10.9690    7.6020   -3.3390 H   0  0  0  0  0  0  0  0  0  0  0  0
   11.6250    5.7190   -2.6400 C   0  0  0  0  0  3  0  0  0  0  0  0
   12.2670    6.2920   -1.7970 O   0  0  0  0  0  0  0  0  0  0  0  0
    9.2040    6.4100   -3.1540 C   0  0  0  0  0  0  0  0  0  0  0  0
    8.6640    7.2090   -3.6620 H   0  0  0  0  0  0  0  0  0  0  0  0
    8.8680    5.4460   -3.5360 H   0  0  0  0  0  0  0  0  0  0  0  0
    8.8060    6.4750   -1.6050 C   0  0  0  0  0  0  0  0  0  0  0  0
    9.0730    5.5270   -1.1380 H   0  0  0  0  0  0  0  0  0  0  0  0
    9.3690    7.2810   -1.1350 H   0  0  0  0  0  0  0  0  0  0  0  0
    7.2710    6.7340   -1.3710 C   0  0  0  0  0  0  0  0  0  0  0  0
    6.9860    6.4380   -0.3620 H   0  0  0  0  0  0  0  0  0  0  0  0
    6.6770    6.1740   -2.0940 H   0  0  0  0  0  0  0  0  0  0  0  0
    7.0740    8.1750   -1.5550 N   0  0  0  0  0  0  0  0  0  0  0  0
    7.9010    8.7810   -1.3810 H   0  0  0  0  0  0  0  0  0  0  0  0
    5.9530    8.7950   -1.9200 C   0  0  0  0  0  0  0  0  0  0  0  0
    4.8300    8.1290   -2.1550 N   0  0  0  0  0  4  0  0  0  0  0  0
    4.8090    7.0940   -2.0560 H   0  0  0  0  0  0  0  0  0  0  0  0
    3.9710    8.6420   -2.4390 H   0  0  0  0  0  0  0  0  0  0  0  0
    5.9750   10.1110   -2.0680 N   0  0  0  0  0  0  0  0  0  0  0  0
    6.8550   10.6390   -1.9000 H   0  0  0  0  0  0  0  0  0  0  0  0
    5.1120   10.6170   -2.3520 H   0  0  0  0  0  0  0  0  0  0  0  0
   11.6800   13.6970    2.1500 N   0  0  0  0  0  2  0  0  0  0  0  0
   11.0060   14.3750    1.7400 H   0  0  0  0  0  0  0  0  0  0  0  0
   12.3750   12.7460    1.2760 C   0  0  2  0  0  0  0  0  0  0  0  0
   12.5890   11.8420    1.8460 H   0  0  0  0  0  0  0  0  0  0  0  0
   13.6730   13.4000    0.7880 C   0  0  0  0  0  3  0  0  0  0  0  0
   13.6690   14.3550    0.0170 O   0  0  0  0  0  0  0  0  0  0  0  0
   11.5200   12.3200    0.0890 C   0  0  0  0  0  0  0  0  0  0  0  0
   11.3570   13.1990   -0.5350 H   0  0  0  0  0  0  0  0  0  0  0  0
   12.0810   11.5750   -0.4740 H   0  0  0  0  0  0  0  0  0  0  0  0
   10.1640   11.7270    0.4160 C   0  0  0  0  0  0  0  0  0  0  0  0
   10.0310   10.3500    0.7370 C   0  0  0  0  0  0  0  0  0  0  0  0
   10.9170    9.7150    0.7680 H   0  0  0  0  0  0  0  0  0  0  0  0
    9.0060   12.5450    0.3790 C   0  0  0  0  0  0  0  0  0  0  0  0
    9.1020   13.6000    0.1210 H   0  0  0  0  0  0  0  0  0  0  0  0
    8.7740    9.8000    1.0140 C   0  0  0  0  0  0  0  0  0  0  0  0
    8.6750    8.7420    1.2580 H   0  0  0  0  0  0  0  0  0  0  0  0
    7.7410   12.0170    0.6690 C   0  0  0  0  0  0  0  0  0  0  0  0
    6.8570   12.6550    0.6610 H   0  0  0  0  0  0  0  0  0  0  0  0
    7.6340   10.6360    0.9730 C   0  0  0  0  0  0  0  0  0  0  0  0
    6.3730   10.1120    1.2340 O   0  0  0  0  0  0  0  0  0  0  0  0
    6.4530    9.1450    1.4290 H   0  0  0  0  0  0  0  0  0  0  0  0
    6.8140   13.4770   -8.2220 H   0  0  0  0  0  0  0  0  0  0  0  0
   -8.7350    4.5970   -6.3320 H   0  0  0  0  0  0  0  0  0  0  0  0
  1  2  1  0
  1  3  1  0
  3  4  1  6
  3  5  1  0
  3  7  1  0
  5  6  2  0
  7  8  1  0
  7  9  1  0
  7 10  1  0
 10 11  2  0
 10 12  1  0
 12250  1  0
 13 14  1  0
 13 15  1  0
 15 16  1  6
 15 17  1  0
 15 19  1  0
 17 18  2  0
 17 24  1  0
 19 20  1  0
 19 21  1  0
 19 22  1  0
 22 23  1  0
 24 25  1  0
 24 26  1  0
 26 27  1  1
 26 28  1  0
 26 30  1  0
 28 29  2  0
 28 35  1  0
 30 31  1  0
 30 32  1  0
 30 33  1  0
 33 34  1  0
 35 36  1  0
 35 37  1  0
 37 38  1  6
 37 39  1  0
 37 41  1  0
 39 40  2  0
 41 42  1  0
 41 43  1  0
 41 44  1  0
 44 45  2  0
 44 47  1  0
 45 46  1  0
 45 49  1  0
 47 48  1  0
 47 51  2  0
 49 50  1  0
 49 53  2  0
 51 52  1  0
 51 53  1  0
 53 54  1  0
 55 56  1  0
 55 57  1  0
 57 58  1  6
 57 59  1  0
 57 61  1  0
 59 60  2  0
 61 62  1  0
 61 63  1  0
 61 67  1  0
 63 64  1  0
 63 65  1  0
 63 66  1  0
 67 68  1  0
 67 69  1  0
 67 70  1  0
 71 72  1  0
 71 73  1  0
 73 74  1  1
 73 75  1  0
 73 77  1  0
 75 76  2  0
 77 78  1  6
 77 79  1  0
 77 82  1  0
 79 80  1  0
 79 81  1  0
 79 86  1  0
 82 83  1  0
 82 84  1  0
 82 85  1  0
 86 87  1  0
 86 88  1  0
 86 89  1  0
 90 91  1  0
 90 92  1  0
 92 93  1  6
 92 94  1  0
 92 96  1  0
 94 95  2  0
 96 97  1  0
 96 98  1  0
 96 99  1  0
 99100  1  0
 99101  2  0
100103  2  0
101102  1  0
101105  1  0
103104  1  0
103105  1  0
105251  1  0
106107  1  0
106108  1  0
108109  1  1
108110  1  0
108112  1  0
110111  2  0
112113  1  0
112114  1  0
112118  1  0
114115  1  0
114116  1  0
114117  1  0
118119  1  0
118120  1  0
118121  1  0
122123  1  0
122124  1  0
124125  1  1
124126  1  0
124128  1  0
126127  2  0
126132  1  0
128129  1  0
128130  1  0
128131  1  0
132133  1  0
132134  1  0
134135  1  1
134136  1  0
134138  1  0
136137  2  0
136143  1  0
138139  1  0
138140  1  0
138141  1  0
141142  1  0
143144  1  0
143145  1  0
145146  1  1
145147  1  0
145149  1  0
147148  2  0
149150  1  0
149151  1  0
149152  1  0
152153  1  0
152154  1  0
152158  1  0
154155  1  0
154156  1  0
154157  1  0
158159  1  0
158160  1  0
158161  1  0
162163  1  0
162164  1  0
164165  1  6
164166  1  0
164168  1  0
166167  2  0
166184  1  0
168169  1  0
168170  1  0
168171  1  0
171172  1  0
171173  1  0
171174  1  0
174175  1  0
174176  1  0
174177  1  0
177178  1  0
177179  1  0
177180  1  0
180181  1  0
180182  1  0
180183  1  0
184185  1  0
184186  1  0
186187  1  6
186188  1  0
186190  1  0
188189  2  0
190191  1  0
190192  1  0
190193  1  0
193194  2  0
193196  1  0
194195  1  0
194198  1  0
196197  1  0
196200  2  0
198199  1  0
198202  2  0
200201  1  0
200202  1  0
202203  1  0
203204  1  0
205206  1  0
205207  1  0
207208  1  6
207209  1  0
207211  1  0
209210  2  0
211212  1  0
211213  1  0
211214  1  0
214215  1  0
214216  1  0
214217  1  0
217218  1  0
217219  1  0
217220  1  0
220221  1  0
220222  1  0
222223  2  0
222226  1  0
223224  1  0
223225  1  0
226227  1  0
226228  1  0
229230  1  0
229231  1  0
231232  1  1
231233  1  0
231235  1  0
233234  2  0
235236  1  0
235237  1  0
235238  1  0
238239  2  0
238241  1  0
239240  1  0
239243  1  0
241242  1  0
241245  2  0
243244  1  0
243247  2  0
245246  1  0
245247  1  0
247248  1  0
248249  1  0
M  RAD  8   1   2   5   2  13   2  39   2  55   2  59   2  71   2  75   2
M  RAD  8  90   2  94   2 106   2 110   2 122   2 147   2 162   2 188   2
M  CHG  2 180   1 223   1
M  RAD  4 205   2 209   2 229   2 233   2
M  END
$$$$

     RDKit          3D

251245  0  0  0  0  0  0  0  0999 V2000
    8.2390   15.7430  -10.2460 N   0  0  0  0  0  2  0  0  0  0  0  0
    8.4060   14.8450   -9.7480 H   0  0  0  0  0  0  0  0  0  0  0  0
    7.1270   16.5820   -9.8330 C   0  0  2  0  0  0  0  0  0  0  0  0
    6.5240   16.7530  -10.7240 H   0  0  0  0  0  0  0  0  0  0  0  0
    7.5010   17.9630   -9.3590 C   0  0  0  0  0  3  0  0  0  0  0  0
    8.3130   18.1090   -8.4540 O   0  0  0  0  0  0  0  0  0  0  0  0
    6.3630   15.8620   -8.7680 C   0  0  0  0  0  0  0  0  0  0  0  0
    7.0440   15.5910   -7.9610 H   0  0  0  0  0  0  0  0  0  0  0  0
    5.5850   16.5200   -8.3800 H   0  0  0  0  0  0  0  0  0  0  0  0
    5.7360   14.6350   -9.3040 C   0  0  0  0  0  0  0  0  0  0  0  0
    4.8520   14.7920  -10.1880 O   0  0  0  0  0  0  0  0  0  0  0  0
    6.1520   13.5130   -8.8840 O   0  0  0  0  0  0  0  0  0  0  0  0
    1.6580   16.8130  -11.9920 N   0  0  0  0  0  2  0  0  0  0  0  0
    2.3630   16.6600  -11.2430 H   0  0  0  0  0  0  0  0  0  0  0  0
    0.5750   15.8710  -12.1280 C   0  0  2  0  0  0  0  0  0  0  0  0
    0.1290   15.9910  -13.1150 H   0  0  0  0  0  0  0  0  0  0  0  0
   -0.5220   16.1130  -11.1130 C   0  0  0  0  0  0  0  0  0  0  0  0
   -0.2990   16.7340  -10.0760 O   0  0  0  0  0  0  0  0  0  0  0  0
    1.1300   14.4960  -11.9520 C   0  0  0  0  0  0  0  0  0  0  0  0
    0.3140   13.7740  -11.9180 H   0  0  0  0  0  0  0  0  0  0  0  0
    1.6970   14.4460  -11.0220 H   0  0  0  0  0  0  0  0  0  0  0  0
    1.9940   14.1960  -13.0610 O   0  0  0  0  0  0  0  0  0  0  0  0
    2.3660   13.2850  -12.9510 H   0  0  0  0  0  0  0  0  0  0  0  0
   -1.7070   15.5990  -11.3820 N   0  0  0  0  0  0  0  0  0  0  0  0
   -1.8300   15.0390  -12.2500 H   0  0  0  0  0  0  0  0  0  0  0  0
   -2.8500   15.7940  -10.4960 C   0  0  2  0  0  0  0  0  0  0  0  0
   -2.4940   15.6940   -9.4710 H   0  0  0  0  0  0  0  0  0  0  0  0
   -3.9360   14.7420  -10.7100 C   0  0  0  0  0  0  0  0  0  0  0  0
   -4.1170   14.2150  -11.8220 O   0  0  0  0  0  0  0  0  0  0  0  0
   -3.4310   17.1680  -10.7260 C   0  0  0  0  0  0  0  0  0  0  0  0
   -3.6970   17.2780  -11.7770 H   0  0  0  0  0  0  0  0  0  0  0  0
   -2.6920   17.9230  -10.4590 H   0  0  0  0  0  0  0  0  0  0  0  0
   -4.5930   17.3400   -9.9250 O   0  0  0  0  0  0  0  0  0  0  0  0
   -4.9690   18.2430  -10.0800 H   0  0  0  0  0  0  0  0  0  0  0  0
   -4.6520   14.4140   -9.6350 N   0  0  0  0  0  0  0  0  0  0  0  0
   -4.3590   14.7920   -8.7110 H   0  0  0  0  0  0  0  0  0  0  0  0
   -5.8320   13.5460   -9.6910 C   0  0  2  0  0  0  0  0  0  0  0  0
   -5.6450   12.7780  -10.4420 H   0  0  0  0  0  0  0  0  0  0  0  0
   -7.0770   14.3290  -10.1220 C   0  0  0  0  0  3  0  0  0  0  0  0
   -8.0250   13.7390  -10.5890 O   0  0  0  0  0  0  0  0  0  0  0  0
   -6.0610   12.8570   -8.3570 C   0  0  0  0  0  0  0  0  0  0  0  0
   -5.9730   13.6020   -7.5670 H   0  0  0  0  0  0  0  0  0  0  0  0
   -7.0700   12.4440   -8.3540 H   0  0  0  0  0  0  0  0  0  0  0  0
   -5.0730   11.7210   -8.0610 C   0  0  0  0  0  0  0  0  0  0  0  0
   -4.0720   11.8810   -7.1020 C   0  0  0  0  0  0  0  0  0  0  0  0
   -3.9860   12.8270   -6.5670 H   0  0  0  0  0  0  0  0  0  0  0  0
   -5.1740   10.4980   -8.7080 C   0  0  0  0  0  0  0  0  0  0  0  0
   -5.9560   10.3530   -9.4530 H   0  0  0  0  0  0  0  0  0  0  0  0
   -3.1820   10.8480   -6.8190 C   0  0  0  0  0  0  0  0  0  0  0  0
   -2.4060   10.9870   -6.0660 H   0  0  0  0  0  0  0  0  0  0  0  0
   -4.2920    9.4420   -8.4250 C   0  0  0  0  0  0  0  0  0  0  0  0
   -4.4060    8.4830   -8.9310 H   0  0  0  0  0  0  0  0  0  0  0  0
   -3.2860    9.6220   -7.5080 C   0  0  0  0  0  0  0  0  0  0  0  0
   -2.5720    8.8220   -7.3140 H   0  0  0  0  0  0  0  0  0  0  0  0
   -3.3140    5.0230  -13.0570 N   0  0  0  0  0  2  0  0  0  0  0  0
   -4.1400    5.6150  -12.8370 H   0  0  0  0  0  0  0  0  0  0  0  0
   -2.5170    4.4610  -11.9940 C   0  0  2  0  0  0  0  0  0  0  0  0
   -1.7250    3.8470  -12.4230 H   0  0  0  0  0  0  0  0  0  0  0  0
   -3.4380    3.6400  -11.1070 C   0  0  0  0  0  3  0  0  0  0  0  0
   -4.4710    4.1900  -10.6370 O   0  0  0  0  0  0  0  0  0  0  0  0
   -1.8540    5.5840  -11.1350 C   0  0  0  0  0  0  0  0  0  0  0  0
   -2.6490    6.2450  -10.7900 H   0  0  0  0  0  0  0  0  0  0  0  0
   -1.1450    4.9970   -9.9330 C   0  0  0  0  0  0  0  0  0  0  0  0
   -1.8650    4.4610   -9.3150 H   0  0  0  0  0  0  0  0  0  0  0  0
   -0.3700    4.3090  -10.2700 H   0  0  0  0  0  0  0  0  0  0  0  0
   -0.6920    5.8000   -9.3520 H   0  0  0  0  0  0  0  0  0  0  0  0
   -0.8790    6.3820  -11.9530 C   0  0  0  0  0  0  0  0  0  0  0  0
   -0.0980    5.7220  -12.3300 H   0  0  0  0  0  0  0  0  0  0  0  0
   -1.4020    6.8440  -12.7900 H   0  0  0  0  0  0  0  0  0  0  0  0
   -0.4320    7.1570  -11.3300 H   0  0  0  0  0  0  0  0  0  0  0  0
   -4.5210    2.0210   -7.7850 N   0  0  0  0  0  2  0  0  0  0  0  0
   -5.4600    2.1270   -8.2190 H   0  0  0  0  0  0  0  0  0  0  0  0
   -4.3760    2.2860   -6.3400 C   0  0  2  0  0  0  0  0  0  0  0  0
   -3.3700    1.9630   -6.0710 H   0  0  0  0  0  0  0  0  0  0  0  0
   -5.3740    1.4700   -5.5200 C   0  0  0  0  0  3  0  0  0  0  0  0
   -6.6090    1.7400   -5.5300 O   0  0  0  0  0  0  0  0  0  0  0  0
   -4.4620    3.8040   -5.9870 C   0  0  2  0  0  0  0  0  0  0  0  0
   -5.4400    4.1780   -6.2900 H   0  0  0  0  0  0  0  0  0  0  0  0
   -3.3750    4.5860   -6.7450 C   0  0  0  0  0  0  0  0  0  0  0  0
   -2.4260    4.4330   -6.2310 H   0  0  0  0  0  0  0  0  0  0  0  0
   -3.3090    4.1820   -7.7550 H   0  0  0  0  0  0  0  0  0  0  0  0
   -4.3050    4.0130   -4.4580 C   0  0  0  0  0  0  0  0  0  0  0  0
   -5.1000    3.4810   -3.9360 H   0  0  0  0  0  0  0  0  0  0  0  0
   -3.3370    3.6280   -4.1370 H   0  0  0  0  0  0  0  0  0  0  0  0
   -4.3670    5.0770   -4.2300 H   0  0  0  0  0  0  0  0  0  0  0  0
   -3.6210    6.0930   -6.8510 C   0  0  0  0  0  0  0  0  0  0  0  0
   -4.5590    6.2710   -7.3760 H   0  0  0  0  0  0  0  0  0  0  0  0
   -3.6760    6.5220   -5.8510 H   0  0  0  0  0  0  0  0  0  0  0  0
   -2.8020    6.5560   -7.4010 H   0  0  0  0  0  0  0  0  0  0  0  0
   -7.1030    4.9550  -11.2140 N   0  0  0  0  0  2  0  0  0  0  0  0
   -6.1220    4.6450  -11.0650 H   0  0  0  0  0  0  0  0  0  0  0  0
   -7.3690    6.3930  -11.2260 C   0  0  2  0  0  0  0  0  0  0  0  0
   -8.4260    6.5500  -11.4390 H   0  0  0  0  0  0  0  0  0  0  0  0
   -6.5510    7.1110  -12.3230 C   0  0  0  0  0  3  0  0  0  0  0  0
   -5.3670    6.8340  -12.4820 O   0  0  0  0  0  0  0  0  0  0  0  0
   -6.9990    6.9690   -9.8590 C   0  0  0  0  0  0  0  0  0  0  0  0
   -5.9460    6.7590   -9.6690 H   0  0  0  0  0  0  0  0  0  0  0  0
   -7.1550    8.0480   -9.8840 H   0  0  0  0  0  0  0  0  0  0  0  0
   -7.8100    6.3970   -8.7320 C   0  0  0  0  0  0  0  0  0  0  0  0
   -9.1120    6.7880   -8.4820 N   0  0  0  0  0  0  0  0  0  0  0  0
   -7.5200    5.4300   -7.8250 C   0  0  0  0  0  0  0  0  0  0  0  0
   -6.5730    4.9000   -7.7210 H   0  0  0  0  0  0  0  0  0  0  0  0
   -9.5840    6.0790   -7.4730 C   0  0  0  0  0  0  0  0  0  0  0  0
  -10.5840    6.1660   -7.0470 H   0  0  0  0  0  0  0  0  0  0  0  0
   -8.6430    5.2470   -7.0660 N   0  0  0  0  0  0  0  0  0  0  0  0
   -4.3430    9.9870  -13.8600 N   0  0  0  0  0  2  0  0  0  0  0  0
   -3.9430    9.2670  -14.4950 H   0  0  0  0  0  0  0  0  0  0  0  0
   -3.4660   11.0950  -13.4060 C   0  0  2  0  0  0  0  0  0  0  0  0
   -3.9980   11.6020  -12.6010 H   0  0  0  0  0  0  0  0  0  0  0  0
   -3.1980   12.0700  -14.5610 C   0  0  0  0  0  3  0  0  0  0  0  0
   -2.6940   11.6660  -15.6100 O   0  0  0  0  0  0  0  0  0  0  0  0
   -2.1230   10.5980  -12.8370 C   0  0  0  0  0  0  0  0  0  0  0  0
   -1.6160   10.0380  -13.6230 H   0  0  0  0  0  0  0  0  0  0  0  0
   -1.2160   11.7770  -12.4230 C   0  0  0  0  0  0  0  0  0  0  0  0
   -1.0140   12.4010  -13.2930 H   0  0  0  0  0  0  0  0  0  0  0  0
   -1.7190   12.3690  -11.6580 H   0  0  0  0  0  0  0  0  0  0  0  0
   -0.2780   11.3900  -12.0260 H   0  0  0  0  0  0  0  0  0  0  0  0
   -2.3600    9.6900  -11.6480 C   0  0  0  0  0  0  0  0  0  0  0  0
   -2.8940   10.2400  -10.8730 H   0  0  0  0  0  0  0  0  0  0  0  0
   -2.9540    8.8310  -11.9610 H   0  0  0  0  0  0  0  0  0  0  0  0
   -1.4020    9.3470  -11.2570 H   0  0  0  0  0  0  0  0  0  0  0  0
   10.6540   11.3050   -5.5760 N   0  0  0  0  0  2  0  0  0  0  0  0
   10.3920   12.2850   -5.8030 H   0  0  0  0  0  0  0  0  0  0  0  0
   10.0940   10.6720   -4.3490 C   0  0  2  0  0  0  0  0  0  0  0  0
   10.8680    9.9920   -3.9930 H   0  0  0  0  0  0  0  0  0  0  0  0
    8.8430    9.8410   -4.6350 C   0  0  0  0  0  0  0  0  0  0  0  0
    8.3760    9.1070   -3.7350 O   0  0  0  0  0  0  0  0  0  0  0  0
    9.8210   11.6790   -3.2540 C   0  0  0  0  0  0  0  0  0  0  0  0
   10.7510   12.1790   -2.9810 H   0  0  0  0  0  0  0  0  0  0  0  0
    9.1020   12.4160   -3.6110 H   0  0  0  0  0  0  0  0  0  0  0  0
    9.4140   11.1650   -2.3830 H   0  0  0  0  0  0  0  0  0  0  0  0
    8.3280    9.9240   -5.8760 N   0  0  0  0  0  0  0  0  0  0  0  0
    8.8050   10.5390   -6.5650 H   0  0  0  0  0  0  0  0  0  0  0  0
    7.1420    9.2010   -6.3060 C   0  0  2  0  0  0  0  0  0  0  0  0
    6.4000    9.3360   -5.5190 H   0  0  0  0  0  0  0  0  0  0  0  0
    7.4250    7.7530   -6.4980 C   0  0  0  0  0  0  0  0  0  0  0  0
    8.5700    7.2700   -6.4620 O   0  0  0  0  0  0  0  0  0  0  0  0
    6.6180    9.7450   -7.6390 C   0  0  0  0  0  0  0  0  0  0  0  0
    5.6190    9.3460   -7.8150 H   0  0  0  0  0  0  0  0  0  0  0  0
    7.2840    9.4210   -8.4390 H   0  0  0  0  0  0  0  0  0  0  0  0
    6.5530   11.1910   -7.6390 O   0  0  0  0  0  0  0  0  0  0  0  0
    6.2110   11.5050   -8.5140 H   0  0  0  0  0  0  0  0  0  0  0  0
    6.3550    7.0580   -6.8100 N   0  0  0  0  0  0  0  0  0  0  0  0
    5.4610    7.5640   -6.9720 H   0  0  0  0  0  0  0  0  0  0  0  0
    6.3700    5.6400   -6.9350 C   0  0  2  0  0  0  0  0  0  0  0  0
    7.1620    5.1570   -6.3640 H   0  0  0  0  0  0  0  0  0  0  0  0
    6.5790    5.3360   -8.4090 C   0  0  0  0  0  3  0  0  0  0  0  0
    6.0940    6.0730   -9.2600 O   0  0  0  0  0  0  0  0  0  0  0  0
    5.0220    5.1190   -6.4090 C   0  0  0  0  0  0  0  0  0  0  0  0
    4.2350    5.7010   -6.8870 H   0  0  0  0  0  0  0  0  0  0  0  0
    4.9330    4.0750   -6.7090 H   0  0  0  0  0  0  0  0  0  0  0  0
    4.7900    5.1880   -4.8740 C   0  0  0  0  0  0  0  0  0  0  0  0
    5.0100    6.2120   -4.5710 H   0  0  0  0  0  0  0  0  0  0  0  0
    3.3110    4.7880   -4.5700 C   0  0  0  0  0  0  0  0  0  0  0  0
    2.6380    5.4790   -5.0770 H   0  0  0  0  0  0  0  0  0  0  0  0
    3.1300    3.7740   -4.9260 H   0  0  0  0  0  0  0  0  0  0  0  0
    3.1370    4.8330   -3.4950 H   0  0  0  0  0  0  0  0  0  0  0  0
    5.7270    4.2640   -4.0560 C   0  0  0  0  0  0  0  0  0  0  0  0
    5.5710    3.2290   -4.3610 H   0  0  0  0  0  0  0  0  0  0  0  0
    6.7640    4.5460   -4.2400 H   0  0  0  0  0  0  0  0  0  0  0  0
    5.5030    4.3690   -2.9940 H   0  0  0  0  0  0  0  0  0  0  0  0
    5.3050    3.2970  -10.3550 N   0  0  0  0  0  2  0  0  0  0  0  0
    5.3190    3.2100   -9.3190 H   0  0  0  0  0  0  0  0  0  0  0  0
    4.1120    2.9140  -11.0930 C   0  0  2  0  0  0  0  0  0  0  0  0
    4.3770    2.2010  -11.8730 H   0  0  0  0  0  0  0  0  0  0  0  0
    3.5250    4.1710  -11.7290 C   0  0  0  0  0  0  0  0  0  0  0  0
    2.8290    4.0740  -12.7370 O   0  0  0  0  0  0  0  0  0  0  0  0
    3.0890    2.1810  -10.2000 C   0  0  0  0  0  0  0  0  0  0  0  0
    2.2390    1.8870  -10.8160 H   0  0  0  0  0  0  0  0  0  0  0  0
    3.5630    1.2900   -9.7890 H   0  0  0  0  0  0  0  0  0  0  0  0
    2.5850    3.0260   -9.0590 C   0  0  0  0  0  0  0  0  0  0  0  0
    3.2850    2.9380   -8.2280 H   0  0  0  0  0  0  0  0  0  0  0  0
    2.5440    4.0640   -9.3890 H   0  0  0  0  0  0  0  0  0  0  0  0
    1.2080    2.6210   -8.5730 C   0  0  0  0  0  0  0  0  0  0  0  0
    0.7530    3.4710   -8.0650 H   0  0  0  0  0  0  0  0  0  0  0  0
    0.6000    2.3470   -9.4350 H   0  0  0  0  0  0  0  0  0  0  0  0
    1.2480    1.4500   -7.6160 C   0  0  0  0  0  0  0  0  0  0  0  0
    2.1300    1.5540   -6.9850 H   0  0  0  0  0  0  0  0  0  0  0  0
    1.3270    0.5330   -8.2000 H   0  0  0  0  0  0  0  0  0  0  0  0
    0.0220    1.3380   -6.7120 N   0  0  0  0  0  4  0  0  0  0  0  0
   -0.0630    2.2000   -6.1370 H   0  0  0  0  0  0  0  0  0  0  0  0
   -0.8300    1.2250   -7.2980 H   0  0  0  0  0  0  0  0  0  0  0  0
    0.1270    0.5130   -6.0880 H   0  0  0  0  0  0  0  0  0  0  0  0
    3.8150    5.3320  -11.1570 N   0  0  0  0  0  0  0  0  0  0  0  0
    4.3440    5.3460  -10.2620 H   0  0  0  0  0  0  0  0  0  0  0  0
    3.4060    6.5700  -11.7600 C   0  0  2  0  0  0  0  0  0  0  0  0
    2.6010    6.3500  -12.4610 H   0  0  0  0  0  0  0  0  0  0  0  0
    4.5830    7.2000  -12.5340 C   0  0  0  0  0  3  0  0  0  0  0  0
    4.3900    7.6850  -13.6440 O   0  0  0  0  0  0  0  0  0  0  0  0
    2.8330    7.5740  -10.6990 C   0  0  0  0  0  0  0  0  0  0  0  0
    1.7520    7.4410  -10.6510 H   0  0  0  0  0  0  0  0  0  0  0  0
    3.2710    7.3350   -9.7300 H   0  0  0  0  0  0  0  0  0  0  0  0
    3.1220    9.0400  -11.0060 C   0  0  0  0  0  0  0  0  0  0  0  0
    2.4190    9.6990  -11.9770 C   0  0  0  0  0  0  0  0  0  0  0  0
    1.6340    9.1740  -12.5200 H   0  0  0  0  0  0  0  0  0  0  0  0
    4.1580    9.7400  -10.3510 C   0  0  0  0  0  0  0  0  0  0  0  0
    4.7460    9.2230   -9.5930 H   0  0  0  0  0  0  0  0  0  0  0  0
    2.7000   11.0760  -12.2930 C   0  0  0  0  0  0  0  0  0  0  0  0
    2.1060   11.5870  -13.0510 H   0  0  0  0  0  0  0  0  0  0  0  0
    4.4620   11.1120  -10.6520 C   0  0  0  0  0  0  0  0  0  0  0  0
    5.2550   11.6380  -10.1200 H   0  0  0  0  0  0  0  0  0  0  0  0
    3.7150   11.7570  -11.6450 C   0  0  0  0  0  0  0  0  0  0  0  0
    3.9630   13.0750  -12.0290 O   0  0  0  0  0  0  0  0  0  0  0  0
    3.3260   13.3360  -12.7410 H   0  0  0  0  0  0  0  0  0  0  0  0
   10.9780    6.3050   -4.9480 N   0  0  0  0  0  2  0  0  0  0  0  0
   10.1880    5.9880   -5.5450 H   0  0  0  0  0  0  0  0  0  0  0  0
   10.7200    6.5580   -3.5270 C   0  0  2  0  0  0  0  0  0  0  0  0
   10.9690    7.6020   -3.3390 H   0  0  0  0  0  0  0  0  0  0  0  0
   11.6250    5.7190   -2.6400 C   0  0  0  0  0  3  0  0  0  0  0  0
   12.2670    6.2920   -1.7970 O   0  0  0  0  0  0  0  0  0  0  0  0
    9.2040    6.4100   -3.1540 C   0  0  0  0  0  0  0  0  0  0  0  0
    8.6640    7.2090   -3.6620 H   0  0  0  0  0  0  0  0  0  0  0  0
    8.8680    5.4460   -3.5360 H   0  0  0  0  0  0  0  0  0  0  0  0
    8.8060    6.4750   -1.6050 C   0  0  0  0  0  0  0  0  0  0  0  0
    9.0730    5.5270   -1.1380 H   0  0  0  0  0  0  0  0  0  0  0  0
    9.3690    7.2810   -1.1350 H   0  0  0  0  0  0  0  0  0  0  0  0
    7.2710    6.7340   -1.3710 C   0  0  0  0  0  0  0  0  0  0  0  0
    6.9860    6.4380   -0.3620 H   0  0  0  0  0  0  0  0  0  0  0  0
    6.6770    6.1740   -2.0940 H   0  0  0  0  0  0  0  0  0  0  0  0
    7.0740    8.1750   -1.5550 N   0  0  0  0  0  0  0  0  0  0  0  0
    7.9010    8.7810   -1.3810 H   0  0  0  0  0  0  0  0  0  0  0  0
    5.9530    8.7950   -1.9200 C   0  0  0  0  0  0  0  0  0  0  0  0
    4.8300    8.1290   -2.1550 N   0  0  0  0  0  4  0  0  0  0  0  0
    4.8090    7.0940   -2.0560 H   0  0  0  0  0  0  0  0  0  0  0  0
    3.9710    8.6420   -2.4390 H   0  0  0  0  0  0  0  0  0  0  0  0
    5.9750   10.1110   -2.0680 N   0  0  0  0  0  0  0  0  0  0  0  0
    6.8550   10.6390   -1.9000 H   0  0  0  0  0  0  0  0  0  0  0  0
    5.1120   10.6170   -2.3520 H   0  0  0  0  0  0  0  0  0  0  0  0
   11.6800   13.6970    2.1500 N   0  0  0  0  0  2  0  0  0  0  0  0
   11.0060   14.3750    1.7400 H   0  0  0  0  0  0  0  0  0  0  0  0
   12.3750   12.7460    1.2760 C   0  0  2  0  0  0  0  0  0  0  0  0
   12.5890   11.8420    1.8460 H   0  0  0  0  0  0  0  0  0  0  0  0
   13.6730   13.4000    0.7880 C   0  0  0  0  0  3  0  0  0  0  0  0
   13.6690   14.3550    0.0170 O   0  0  0  0  0  0  0  0  0  0  0  0
   11.5200   12.3200    0.0890 C   0  0  0  0  0  0  0  0  0  0  0  0
   11.3570   13.1990   -0.5350 H   0  0  0  0  0  0  0  0  0  0  0  0
   12.0810   11.5750   -0.4740 H   0  0  0  0  0  0  0  0  0  0  0  0
   10.1640   11.7270    0.4160 C   0  0  0  0  0  0  0  0  0  0  0  0
   10.0310   10.3500    0.7370 C   0  0  0  0  0  0  0  0  0  0  0  0
   10.9170    9.7150    0.7680 H   0  0  0  0  0  0  0  0  0  0  0  0
    9.0060   12.5450    0.3790 C   0  0  0  0  0  0  0  0  0  0  0  0
    9.1020   13.6000    0.1210 H   0  0  0  0  0  0  0  0  0  0  0  0
    8.7740    9.8000    1.0140 C   0  0  0  0  0  0  0  0  0  0  0  0
    8.6750    8.7420    1.2580 H   0  0  0  0  0  0  0  0  0  0  0  0
    7.7410   12.0170    0.6690 C   0  0  0  0  0  0  0  0  0  0  0  0
    6.8570   12.6550    0.6610 H   0  0  0  0  0  0  0  0  0  0  0  0
    7.6340   10.6360    0.9730 C   0  0  0  0  0  0  0  0  0  0  0  0
    6.3730   10.1120    1.2340 O   0  0  0  0  0  0  0  0  0  0  0  0
    6.4530    9.1450    1.4290 H   0  0  0  0  0  0  0  0  0  0  0  0
    6.8140   13.4770   -8.2220 H   0  0  0  0  0  0  0  0  0  0  0  0
   -8.7350    4.5970   -6.3320 H   0  0  0  0  0  0  0  0  0  0  0  0
  1  2  1  0
  1  3  1  0
  3  4  1  6
  3  5  1  0
  3  7  1  0
  5  6  2  0
  7  8  1  0
  7  9  1  0
  7 10  1  0
 10 11  2  0
 10 12  1  0
 12250  1  0
 13 14  1  0
 13 15  1  0
 15 16  1  6
 15 17  1  0
 15 19  1  0
 17 18  2  0
 17 24  1  0
 19 20  1  0
 19 21  1  0
 19 22  1  0
 22 23  1  0
 24 25  1  0
 24 26  1  0
 26 27  1  1
 26 28  1  0
 26 30  1  0
 28 29  2  0
 28 35  1  0
 30 31  1  0
 30 32  1  0
 30 33  1  0
 33 34  1  0
 35 36  1  0
 35 37  1  0
 37 38  1  6
 37 39  1  0
 37 41  1  0
 39 40  2  0
 41 42  1  0
 41 43  1  0
 41 44  1  0
 44 45  2  0
 44 47  1  0
 45 46  1  0
 45 49  1  0
 47 48  1  0
 47 51  2  0
 49 50  1  0
 49 53  2  0
 51 52  1  0
 51 53  1  0
 53 54  1  0
 55 56  1  0
 55 57  1  0
 57 58  1  6
 57 59  1  0
 57 61  1  0
 59 60  2  0
 61 62  1  0
 61 63  1  0
 61 67  1  0
 63 64  1  0
 63 65  1  0
 63 66  1  0
 67 68  1  0
 67 69  1  0
 67 70  1  0
 71 72  1  0
 71 73  1  0
 73 74  1  1
 73 75  1  0
 73 77  1  0
 75 76  2  0
 77 78  1  6
 77 79  1  0
 77 82  1  0
 79 80  1  0
 79 81  1  0
 79 86  1  0
 82 83  1  0
 82 84  1  0
 82 85  1  0
 86 87  1  0
 86 88  1  0
 86 89  1  0
 90 91  1  0
 90 92  1  0
 92 93  1  6
 92 94  1  0
 92 96  1  0
 94 95  2  0
 96 97  1  0
 96 98  1  0
 96 99  1  0
 99100  1  0
 99101  2  0
100103  2  0
101102  1  0
101105  1  0
103104  1  0
103105  1  0
105251  1  0
106107  1  0
106108  1  0
108109  1  1
108110  1  0
108112  1  0
110111  2  0
112113  1  0
112114  1  0
112118  1  0
114115  1  0
114116  1  0
114117  1  0
118119  1  0
118120  1  0
118121  1  0
122123  1  0
122124  1  0
124125  1  1
124126  1  0
124128  1  0
126127  2  0
126132  1  0
128129  1  0
128130  1  0
128131  1  0
132133  1  0
132134  1  0
134135  1  1
134136  1  0
134138  1  0
136137  2  0
136143  1  0
138139  1  0
138140  1  0
138141  1  0
141142  1  0
143144  1  0
143145  1  0
145146  1  1
145147  1  0
145149  1  0
147148  2  0
149150  1  0
149151  1  0
149152  1  0
152153  1  0
152154  1  0
152158  1  0
154155  1  0
154156  1  0
154157  1  0
158159  1  0
158160  1  0
158161  1  0
162163  1  0
162164  1  0
164165  1  6
164166  1  0
164168  1  0
166167  2  0
166184  1  0
168169  1  0
168170  1  0
168171  1  0
171172  1  0
171173  1  0
171174  1  0
174175  1  0
174176  1  0
174177  1  0
177178  1  0
177179  1  0
177180  1  0
180181  1  0
180182  1  0
180183  1  0
184185  1  0
184186  1  0
186187  1  6
186188  1  0
186190  1  0
188189  2  0
190191  1  0
190192  1  0
190193  1  0
193194  2  0
193196  1  0
194195  1  0
194198  1  0
196197  1  0
196200  2  0
198199  1  0
198202  2  0
200201  1  0
200202  1  0
202203  1  0
203204  1  0
205206  1  0
205207  1  0
207208  1  6
207209  1  0
207211  1  0
209210  2  0
211212  1  0
211213  1  0
211214  1  0
214215  1  0
214216  1  0
214217  1  0
217218  1  0
217219  1  0
217220  1  0
220221  1  0
220222  1  0
222223  2  0
222226  1  0
223224  1  0
223225  1  0
226227  1  0
226228  1  0
229230  1  0
229231  1  0
231232  1  1
231233  1  0
231235  1  0
233234  2  0
235236  1  0
235237  1  0
235238  1  0
238239  2  0
238241  1  0
239240  1  0
239243  1  0
241242  1  0
241245  2  0
243244  1  0
243247  2  0
245246  1  0
245247  1  0
247248  1  0
248249  1  0
M  RAD  8   1   2   5   2  13   2  39   2  55   2  59   2  71   2  75   2
M  RAD  8  90   2  94   2 106   2 110   2 122   2 147   2 162   2 188   2
M  CHG  2 180   1 223   1
M  RAD  4 205   2 209   2 229   2 233   2
M  END
$$$$

     RDKit          3D

251245  0  0  0  0  0  0  0  0999 V2000
    8.2390   15.7430  -10.2460 N   0  0  0  0  0  2  0  0  0  0  0  0
    8.4060   14.8450   -9.7480 H   0  0  0  0  0  0  0  0  0  0  0  0
    7.1270   16.5820   -9.8330 C   0  0  2  0  0  0  0  0  0  0  0  0
    6.5240   16.7530  -10.7240 H   0  0  0  0  0  0  0  0  0  0  0  0
    7.5010   17.9630   -9.3590 C   0  0  0  0  0  3  0  0  0  0  0  0
    8.3130   18.1090   -8.4540 O   0  0  0  0  0  0  0  0  0  0  0  0
    6.3630   15.8620   -8.7680 C   0  0  0  0  0  0  0  0  0  0  0  0
    7.0440   15.5910   -7.9610 H   0  0  0  0  0  0  0  0  0  0  0  0
    5.5850   16.5200   -8.3800 H   0  0  0  0  0  0  0  0  0  0  0  0
    5.7360   14.6350   -9.3040 C   0  0  0  0  0  0  0  0  0  0  0  0
    4.8520   14.7920  -10.1880 O   0  0  0  0  0  0  0  0  0  0  0  0
    6.1520   13.5130   -8.8840 O   0  0  0  0  0  0  0  0  0  0  0  0
    1.6580   16.8130  -11.9920 N   0  0  0  0  0  2  0  0  0  0  0  0
    2.3630   16.6600  -11.2430 H   0  0  0  0  0  0  0  0  0  0  0  0
    0.5750   15.8710  -12.1280 C   0  0  2  0  0  0  0  0  0  0  0  0
    0.1290   15.9910  -13.1150 H   0  0  0  0  0  0  0  0  0  0  0  0
   -0.5220   16.1130  -11.1130 C   0  0  0  0  0  0  0  0  0  0  0  0
   -0.2990   16.7340  -10.0760 O   0  0  0  0  0  0  0  0  0  0  0  0
    1.1300   14.4960  -11.9520 C   0  0  0  0  0  0  0  0  0  0  0  0
    0.3140   13.7740  -11.9180 H   0  0  0  0  0  0  0  0  0  0  0  0
    1.6970   14.4460  -11.0220 H   0  0  0  0  0  0  0  0  0  0  0  0
    1.9940   14.1960  -13.0610 O   0  0  0  0  0  0  0  0  0  0  0  0
    2.3660   13.2850  -12.9510 H   0  0  0  0  0  0  0  0  0  0  0  0
   -1.7070   15.5990  -11.3820 N   0  0  0  0  0  0  0  0  0  0  0  0
   -1.8300   15.0390  -12.2500 H   0  0  0  0  0  0  0  0  0  0  0  0
   -2.8500   15.7940  -10.4960 C   0  0  2  0  0  0  0  0  0  0  0  0
   -2.4940   15.6940   -9.4710 H   0  0  0  0  0  0  0  0  0  0  0  0
   -3.9360   14.7420  -10.7100 C   0  0  0  0  0  0  0  0  0  0  0  0
   -4.1170   14.2150  -11.8220 O   0  0  0  0  0  0  0  0  0  0  0  0
   -3.4310   17.1680  -10.7260 C   0  0  0  0  0  0  0  0  0  0  0  0
   -3.6970   17.2780  -11.7770 H   0  0  0  0  0  0  0  0  0  0  0  0
   -2.6920   17.9230  -10.4590 H   0  0  0  0  0  0  0  0  0  0  0  0
   -4.5930   17.3400   -9.9250 O   0  0  0  0  0  0  0  0  0  0  0  0
   -4.9690   18.2430  -10.0800 H   0  0  0  0  0  0  0  0  0  0  0  0
   -4.6520   14.4140   -9.6350 N   0  0  0  0  0  0  0  0  0  0  0  0
   -4.3590   14.7920   -8.7110 H   0  0  0  0  0  0  0  0  0  0  0  0
   -5.8320   13.5460   -9.6910 C   0  0  2  0  0  0  0  0  0  0  0  0
   -5.6450   12.7780  -10.4420 H   0  0  0  0  0  0  0  0  0  0  0  0
   -7.0770   14.3290  -10.1220 C   0  0  0  0  0  3  0  0  0  0  0  0
   -8.0250   13.7390  -10.5890 O   0  0  0  0  0  0  0  0  0  0  0  0
   -6.0610   12.8570   -8.3570 C   0  0  0  0  0  0  0  0  0  0  0  0
   -5.9730   13.6020   -7.5670 H   0  0  0  0  0  0  0  0  0  0  0  0
   -7.0700   12.4440   -8.3540 H   0  0  0  0  0  0  0  0  0  0  0  0
   -5.0730   11.7210   -8.0610 C   0  0  0  0  0  0  0  0  0  0  0  0
   -4.0720   11.8810   -7.1020 C   0  0  0  0  0  0  0  0  0  0  0  0
   -3.9860   12.8270   -6.5670 H   0  0  0  0  0  0  0  0  0  0  0  0
   -5.1740   10.4980   -8.7080 C   0  0  0  0  0  0  0  0  0  0  0  0
   -5.9560   10.3530   -9.4530 H   0  0  0  0  0  0  0  0  0  0  0  0
   -3.1820   10.8480   -6.8190 C   0  0  0  0  0  0  0  0  0  0  0  0
   -2.4060   10.9870   -6.0660 H   0  0  0  0  0  0  0  0  0  0  0  0
   -4.2920    9.4420   -8.4250 C   0  0  0  0  0  0  0  0  0  0  0  0
   -4.4060    8.4830   -8.9310 H   0  0  0  0  0  0  0  0  0  0  0  0
   -3.2860    9.6220   -7.5080 C   0  0  0  0  0  0  0  0  0  0  0  0
   -2.5720    8.8220   -7.3140 H   0  0  0  0  0  0  0  0  0  0  0  0
   -3.3140    5.0230  -13.0570 N   0  0  0  0  0  2  0  0  0  0  0  0
   -4.1400    5.6150  -12.8370 H   0  0  0  0  0  0  0  0  0  0  0  0
   -2.5170    4.4610  -11.9940 C   0  0  2  0  0  0  0  0  0  0  0  0
   -1.7250    3.8470  -12.4230 H   0  0  0  0  0  0  0  0  0  0  0  0
   -3.4380    3.6400  -11.1070 C   0  0  0  0  0  3  0  0  0  0  0  0
   -4.4710    4.1900  -10.6370 O   0  0  0  0  0  0  0  0  0  0  0  0
   -1.8540    5.5840  -11.1350 C   0  0  0  0  0  0  0  0  0  0  0  0
   -2.6490    6.2450  -10.7900 H   0  0  0  0  0  0  0  0  0  0  0  0
   -1.1450    4.9970   -9.9330 C   0  0  0  0  0  0  0  0  0  0  0  0
   -1.8650    4.4610   -9.3150 H   0  0  0  0  0  0  0  0  0  0  0  0
   -0.3700    4.3090  -10.2700 H   0  0  0  0  0  0  0  0  0  0  0  0
   -0.6920    5.8000   -9.3520 H   0  0  0  0  0  0  0  0  0  0  0  0
   -0.8790    6.3820  -11.9530 C   0  0  0  0  0  0  0  0  0  0  0  0
   -0.0980    5.7220  -12.3300 H   0  0  0  0  0  0  0  0  0  0  0  0
   -1.4020    6.8440  -12.7900 H   0  0  0  0  0  0  0  0  0  0  0  0
   -0.4320    7.1570  -11.3300 H   0  0  0  0  0  0  0  0  0  0  0  0
   -4.5210    2.0210   -7.7850 N   0  0  0  0  0  2  0  0  0  0  0  0
   -5.4600    2.1270   -8.2190 H   0  0  0  0  0  0  0  0  0  0  0  0
   -4.3760    2.2860   -6.3400 C   0  0  2  0  0  0  0  0  0  0  0  0
   -3.3700    1.9630   -6.0710 H   0  0  0  0  0  0  0  0  0  0  0  0
   -5.3740    1.4700   -5.5200 C   0  0  0  0  0  3  0  0  0  0  0  0
   -6.6090    1.7400   -5.5300 O   0  0  0  0  0  0  0  0  0  0  0  0
   -4.4620    3.8040   -5.9870 C   0  0  2  0  0  0  0  0  0  0  0  0
   -5.4400    4.1780   -6.2900 H   0  0  0  0  0  0  0  0  0  0  0  0
   -3.3750    4.5860   -6.7450 C   0  0  0  0  0  0  0  0  0  0  0  0
   -2.4260    4.4330   -6.2310 H   0  0  0  0  0  0  0  0  0  0  0  0
   -3.3090    4.1820   -7.7550 H   0  0  0  0  0  0  0  0  0  0  0  0
   -4.3050    4.0130   -4.4580 C   0  0  0  0  0  0  0  0  0  0  0  0
   -5.1000    3.4810   -3.9360 H   0  0  0  0  0  0  0  0  0  0  0  0
   -3.3370    3.6280   -4.1370 H   0  0  0  0  0  0  0  0  0  0  0  0
   -4.3670    5.0770   -4.2300 H   0  0  0  0  0  0  0  0  0  0  0  0
   -3.6210    6.0930   -6.8510 C   0  0  0  0  0  0  0  0  0  0  0  0
   -4.5590    6.2710   -7.3760 H   0  0  0  0  0  0  0  0  0  0  0  0
   -3.6760    6.5220   -5.8510 H   0  0  0  0  0  0  0  0  0  0  0  0
   -2.8020    6.5560   -7.4010 H   0  0  0  0  0  0  0  0  0  0  0  0
   -7.1030    4.9550  -11.2140 N   0  0  0  0  0  2  0  0  0  0  0  0
   -6.1220    4.6450  -11.0650 H   0  0  0  0  0  0  0  0  0  0  0  0
   -7.3690    6.3930  -11.2260 C   0  0  2  0  0  0  0  0  0  0  0  0
   -8.4260    6.5500  -11.4390 H   0  0  0  0  0  0  0  0  0  0  0  0
   -6.5510    7.1110  -12.3230 C   0  0  0  0  0  3  0  0  0  0  0  0
   -5.3670    6.8340  -12.4820 O   0  0  0  0  0  0  0  0  0  0  0  0
   -6.9990    6.9690   -9.8590 C   0  0  0  0  0  0  0  0  0  0  0  0
   -5.9460    6.7590   -9.6690 H   0  0  0  0  0  0  0  0  0  0  0  0
   -7.1550    8.0480   -9.8840 H   0  0  0  0  0  0  0  0  0  0  0  0
   -7.8100    6.3970   -8.7320 C   0  0  0  0  0  0  0  0  0  0  0  0
   -9.1120    6.7880   -8.4820 N   0  0  0  0  0  0  0  0  0  0  0  0
   -7.5200    5.4300   -7.8250 C   0  0  0  0  0  0  0  0  0  0  0  0
   -6.5730    4.9000   -7.7210 H   0  0  0  0  0  0  0  0  0  0  0  0
   -9.5840    6.0790   -7.4730 C   0  0  0  0  0  0  0  0  0  0  0  0
  -10.5840    6.1660   -7.0470 H   0  0  0  0  0  0  0  0  0  0  0  0
   -8.6430    5.2470   -7.0660 N   0  0  0  0  0  0  0  0  0  0  0  0
   -4.3430    9.9870  -13.8600 N   0  0  0  0  0  2  0  0  0  0  0  0
   -3.9430    9.2670  -14.4950 H   0  0  0  0  0  0  0  0  0  0  0  0
   -3.4660   11.0950  -13.4060 C   0  0  2  0  0  0  0  0  0  0  0  0
   -3.9980   11.6020  -12.6010 H   0  0  0  0  0  0  0  0  0  0  0  0
   -3.1980   12.0700  -14.5610 C   0  0  0  0  0  3  0  0  0  0  0  0
   -2.6940   11.6660  -15.6100 O   0  0  0  0  0  0  0  0  0  0  0  0
   -2.1230   10.5980  -12.8370 C   0  0  0  0  0  0  0  0  0  0  0  0
   -1.6160   10.0380  -13.6230 H   0  0  0  0  0  0  0  0  0  0  0  0
   -1.2160   11.7770  -12.4230 C   0  0  0  0  0  0  0  0  0  0  0  0
   -1.0140   12.4010  -13.2930 H   0  0  0  0  0  0  0  0  0  0  0  0
   -1.7190   12.3690  -11.6580 H   0  0  0  0  0  0  0  0  0  0  0  0
   -0.2780   11.3900  -12.0260 H   0  0  0  0  0  0  0  0  0  0  0  0
   -2.3600    9.6900  -11.6480 C   0  0  0  0  0  0  0  0  0  0  0  0
   -2.8940   10.2400  -10.8730 H   0  0  0  0  0  0  0  0  0  0  0  0
   -2.9540    8.8310  -11.9610 H   0  0  0  0  0  0  0  0  0  0  0  0
   -1.4020    9.3470  -11.2570 H   0  0  0  0  0  0  0  0  0  0  0  0
   10.6540   11.3050   -5.5760 N   0  0  0  0  0  2  0  0  0  0  0  0
   10.3920   12.2850   -5.8030 H   0  0  0  0  0  0  0  0  0  0  0  0
   10.0940   10.6720   -4.3490 C   0  0  2  0  0  0  0  0  0  0  0  0
   10.8680    9.9920   -3.9930 H   0  0  0  0  0  0  0  0  0  0  0  0
    8.8430    9.8410   -4.6350 C   0  0  0  0  0  0  0  0  0  0  0  0
    8.3760    9.1070   -3.7350 O   0  0  0  0  0  0  0  0  0  0  0  0
    9.8210   11.6790   -3.2540 C   0  0  0  0  0  0  0  0  0  0  0  0
   10.7510   12.1790   -2.9810 H   0  0  0  0  0  0  0  0  0  0  0  0
    9.1020   12.4160   -3.6110 H   0  0  0  0  0  0  0  0  0  0  0  0
    9.4140   11.1650   -2.3830 H   0  0  0  0  0  0  0  0  0  0  0  0
    8.3280    9.9240   -5.8760 N   0  0  0  0  0  0  0  0  0  0  0  0
    8.8050   10.5390   -6.5650 H   0  0  0  0  0  0  0  0  0  0  0  0
    7.1420    9.2010   -6.3060 C   0  0  2  0  0  0  0  0  0  0  0  0
    6.4000    9.3360   -5.5190 H   0  0  0  0  0  0  0  0  0  0  0  0
    7.4250    7.7530   -6.4980 C   0  0  0  0  0  0  0  0  0  0  0  0
    8.5700    7.2700   -6.4620 O   0  0  0  0  0  0  0  0  0  0  0  0
    6.6180    9.7450   -7.6390 C   0  0  0  0  0  0  0  0  0  0  0  0
    5.6190    9.3460   -7.8150 H   0  0  0  0  0  0  0  0  0  0  0  0
    7.2840    9.4210   -8.4390 H   0  0  0  0  0  0  0  0  0  0  0  0
    6.5530   11.1910   -7.6390 O   0  0  0  0  0  0  0  0  0  0  0  0
    6.2110   11.5050   -8.5140 H   0  0  0  0  0  0  0  0  0  0  0  0
    6.3550    7.0580   -6.8100 N   0  0  0  0  0  0  0  0  0  0  0  0
    5.4610    7.5640   -6.9720 H   0  0  0  0  0  0  0  0  0  0  0  0
    6.3700    5.6400   -6.9350 C   0  0  2  0  0  0  0  0  0  0  0  0
    7.1620    5.1570   -6.3640 H   0  0  0  0  0  0  0  0  0  0  0  0
    6.5790    5.3360   -8.4090 C   0  0  0  0  0  3  0  0  0  0  0  0
    6.0940    6.0730   -9.2600 O   0  0  0  0  0  0  0  0  0  0  0  0
    5.0220    5.1190   -6.4090 C   0  0  0  0  0  0  0  0  0  0  0  0
    4.2350    5.7010   -6.8870 H   0  0  0  0  0  0  0  0  0  0  0  0
    4.9330    4.0750   -6.7090 H   0  0  0  0  0  0  0  0  0  0  0  0
    4.7900    5.1880   -4.8740 C   0  0  0  0  0  0  0  0  0  0  0  0
    5.0100    6.2120   -4.5710 H   0  0  0  0  0  0  0  0  0  0  0  0
    3.3110    4.7880   -4.5700 C   0  0  0  0  0  0  0  0  0  0  0  0
    2.6380    5.4790   -5.0770 H   0  0  0  0  0  0  0  0  0  0  0  0
    3.1300    3.7740   -4.9260 H   0  0  0  0  0  0  0  0  0  0  0  0
    3.1370    4.8330   -3.4950 H   0  0  0  0  0  0  0  0  0  0  0  0
    5.7270    4.2640   -4.0560 C   0  0  0  0  0  0  0  0  0  0  0  0
    5.5710    3.2290   -4.3610 H   0  0  0  0  0  0  0  0  0  0  0  0
    6.7640    4.5460   -4.2400 H   0  0  0  0  0  0  0  0  0  0  0  0
    5.5030    4.3690   -2.9940 H   0  0  0  0  0  0  0  0  0  0  0  0
    5.3050    3.2970  -10.3550 N   0  0  0  0  0  2  0  0  0  0  0  0
    5.3190    3.2100   -9.3190 H   0  0  0  0  0  0  0  0  0  0  0  0
    4.1120    2.9140  -11.0930 C   0  0  2  0  0  0  0  0  0  0  0  0
    4.3770    2.2010  -11.8730 H   0  0  0  0  0  0  0  0  0  0  0  0
    3.5250    4.1710  -11.7290 C   0  0  0  0  0  0  0  0  0  0  0  0
    2.8290    4.0740  -12.7370 O   0  0  0  0  0  0  0  0  0  0  0  0
    3.0890    2.1810  -10.2000 C   0  0  0  0  0  0  0  0  0  0  0  0
    2.2390    1.8870  -10.8160 H   0  0  0  0  0  0  0  0  0  0  0  0
    3.5630    1.2900   -9.7890 H   0  0  0  0  0  0  0  0  0  0  0  0
    2.5850    3.0260   -9.0590 C   0  0  0  0  0  0  0  0  0  0  0  0
    3.2850    2.9380   -8.2280 H   0  0  0  0  0  0  0  0  0  0  0  0
    2.5440    4.0640   -9.3890 H   0  0  0  0  0  0  0  0  0  0  0  0
    1.2080    2.6210   -8.5730 C   0  0  0  0  0  0  0  0  0  0  0  0
    0.7530    3.4710   -8.0650 H   0  0  0  0  0  0  0  0  0  0  0  0
    0.6000    2.3470   -9.4350 H   0  0  0  0  0  0  0  0  0  0  0  0
    1.2480    1.4500   -7.6160 C   0  0  0  0  0  0  0  0  0  0  0  0
    2.1300    1.5540   -6.9850 H   0  0  0  0  0  0  0  0  0  0  0  0
    1.3270    0.5330   -8.2000 H   0  0  0  0  0  0  0  0  0  0  0  0
    0.0220    1.3380   -6.7120 N   0  0  0  0  0  4  0  0  0  0  0  0
   -0.0630    2.2000   -6.1370 H   0  0  0  0  0  0  0  0  0  0  0  0
   -0.8300    1.2250   -7.2980 H   0  0  0  0  0  0  0  0  0  0  0  0
    0.1270    0.5130   -6.0880 H   0  0  0  0  0  0  0  0  0  0  0  0
    3.8150    5.3320  -11.1570 N   0  0  0  0  0  0  0  0  0  0  0  0
    4.3440    5.3460  -10.2620 H   0  0  0  0  0  0  0  0  0  0  0  0
    3.4060    6.5700  -11.7600 C   0  0  2  0  0  0  0  0  0  0  0  0
    2.6010    6.3500  -12.4610 H   0  0  0  0  0  0  0  0  0  0  0  0
    4.5830    7.2000  -12.5340 C   0  0  0  0  0  3  0  0  0  0  0  0
    4.3900    7.6850  -13.6440 O   0  0  0  0  0  0  0  0  0  0  0  0
    2.8330    7.5740  -10.6990 C   0  0  0  0  0  0  0  0  0  0  0  0
    1.7520    7.4410  -10.6510 H   0  0  0  0  0  0  0  0  0  0  0  0
    3.2710    7.3350   -9.7300 H   0  0  0  0  0  0  0  0  0  0  0  0
    3.1220    9.0400  -11.0060 C   0  0  0  0  0  0  0  0  0  0  0  0
    2.4190    9.6990  -11.9770 C   0  0  0  0  0  0  0  0  0  0  0  0
    1.6340    9.1740  -12.5200 H   0  0  0  0  0  0  0  0  0  0  0  0
    4.1580    9.7400  -10.3510 C   0  0  0  0  0  0  0  0  0  0  0  0
    4.7460    9.2230   -9.5930 H   0  0  0  0  0  0  0  0  0  0  0  0
    2.7000   11.0760  -12.2930 C   0  0  0  0  0  0  0  0  0  0  0  0
    2.1060   11.5870  -13.0510 H   0  0  0  0  0  0  0  0  0  0  0  0
    4.4620   11.1120  -10.6520 C   0  0  0  0  0  0  0  0  0  0  0  0
    5.2550   11.6380  -10.1200 H   0  0  0  0  0  0  0  0  0  0  0  0
    3.7150   11.7570  -11.6450 C   0  0  0  0  0  0  0  0  0  0  0  0
    3.9630   13.0750  -12.0290 O   0  0  0  0  0  0  0  0  0  0  0  0
    3.3260   13.3360  -12.7410 H   0  0  0  0  0  0  0  0  0  0  0  0
   10.9780    6.3050   -4.9480 N   0  0  0  0  0  2  0  0  0  0  0  0
   10.1880    5.9880   -5.5450 H   0  0  0  0  0  0  0  0  0  0  0  0
   10.7200    6.5580   -3.5270 C   0  0  2  0  0  0  0  0  0  0  0  0
   10.9690    7.6020   -3.3390 H   0  0  0  0  0  0  0  0  0  0  0  0
   11.6250    5.7190   -2.6400 C   0  0  0  0  0  3  0  0  0  0  0  0
   12.2670    6.2920   -1.7970 O   0  0  0  0  0  0  0  0  0  0  0  0
    9.2040    6.4100   -3.1540 C   0  0  0  0  0  0  0  0  0  0  0  0
    8.6640    7.2090   -3.6620 H   0  0  0  0  0  0  0  0  0  0  0  0
    8.8680    5.4460   -3.5360 H   0  0  0  0  0  0  0  0  0  0  0  0
    8.8060    6.4750   -1.6050 C   0  0  0  0  0  0  0  0  0  0  0  0
    9.0730    5.5270   -1.1380 H   0  0  0  0  0  0  0  0  0  0  0  0
    9.3690    7.2810   -1.1350 H   0  0  0  0  0  0  0  0  0  0  0  0
    7.2710    6.7340   -1.3710 C   0  0  0  0  0  0  0  0  0  0  0  0
    6.9860    6.4380   -0.3620 H   0  0  0  0  0  0  0  0  0  0  0  0
    6.6770    6.1740   -2.0940 H   0  0  0  0  0  0  0  0  0  0  0  0
    7.0740    8.1750   -1.5550 N   0  0  0  0  0  0  0  0  0  0  0  0
    7.9010    8.7810   -1.3810 H   0  0  0  0  0  0  0  0  0  0  0  0
    5.9530    8.7950   -1.9200 C   0  0  0  0  0  0  0  0  0  0  0  0
    4.8300    8.1290   -2.1550 N   0  0  0  0  0  4  0  0  0  0  0  0
    4.8090    7.0940   -2.0560 H   0  0  0  0  0  0  0  0  0  0  0  0
    3.9710    8.6420   -2.4390 H   0  0  0  0  0  0  0  0  0  0  0  0
    5.9750   10.1110   -2.0680 N   0  0  0  0  0  0  0  0  0  0  0  0
    6.8550   10.6390   -1.9000 H   0  0  0  0  0  0  0  0  0  0  0  0
    5.1120   10.6170   -2.3520 H   0  0  0  0  0  0  0  0  0  0  0  0
   11.6800   13.6970    2.1500 N   0  0  0  0  0  2  0  0  0  0  0  0
   11.0060   14.3750    1.7400 H   0  0  0  0  0  0  0  0  0  0  0  0
   12.3750   12.7460    1.2760 C   0  0  2  0  0  0  0  0  0  0  0  0
   12.5890   11.8420    1.8460 H   0  0  0  0  0  0  0  0  0  0  0  0
   13.6730   13.4000    0.7880 C   0  0  0  0  0  3  0  0  0  0  0  0
   13.6690   14.3550    0.0170 O   0  0  0  0  0  0  0  0  0  0  0  0
   11.5200   12.3200    0.0890 C   0  0  0  0  0  0  0  0  0  0  0  0
   11.3570   13.1990   -0.5350 H   0  0  0  0  0  0  0  0  0  0  0  0
   12.0810   11.5750   -0.4740 H   0  0  0  0  0  0  0  0  0  0  0  0
   10.1640   11.7270    0.4160 C   0  0  0  0  0  0  0  0  0  0  0  0
   10.0310   10.3500    0.7370 C   0  0  0  0  0  0  0  0  0  0  0  0
   10.9170    9.7150    0.7680 H   0  0  0  0  0  0  0  0  0  0  0  0
    9.0060   12.5450    0.3790 C   0  0  0  0  0  0  0  0  0  0  0  0
    9.1020   13.6000    0.1210 H   0  0  0  0  0  0  0  0  0  0  0  0
    8.7740    9.8000    1.0140 C   0  0  0  0  0  0  0  0  0  0  0  0
    8.6750    8.7420    1.2580 H   0  0  0  0  0  0  0  0  0  0  0  0
    7.7410   12.0170    0.6690 C   0  0  0  0  0  0  0  0  0  0  0  0
    6.8570   12.6550    0.6610 H   0  0  0  0  0  0  0  0  0  0  0  0
    7.6340   10.6360    0.9730 C   0  0  0  0  0  0  0  0  0  0  0  0
    6.3730   10.1120    1.2340 O   0  0  0  0  0  0  0  0  0  0  0  0
    6.4530    9.1450    1.4290 H   0  0  0  0  0  0  0  0  0  0  0  0
    6.8140   13.4770   -8.2220 H   0  0  0  0  0  0  0  0  0  0  0  0
   -8.7350    4.5970   -6.3320 H   0  0  0  0  0  0  0  0  0  0  0  0
  1  2  1  0
  1  3  1  0
  3  4  1  6
  3  5  1  0
  3  7  1  0
  5  6  2  0
  7  8  1  0
  7  9  1  0
  7 10  1  0
 10 11  2  0
 10 12  1  0
 12250  1  0
 13 14  1  0
 13 15  1  0
 15 16  1  6
 15 17  1  0
 15 19  1  0
 17 18  2  0
 17 24  1  0
 19 20  1  0
 19 21  1  0
 19 22  1  0
 22 23  1  0
 24 25  1  0
 24 26  1  0
 26 27  1  1
 26 28  1  0
 26 30  1  0
 28 29  2  0
 28 35  1  0
 30 31  1  0
 30 32  1  0
 30 33  1  0
 33 34  1  0
 35 36  1  0
 35 37  1  0
 37 38  1  6
 37 39  1  0
 37 41  1  0
 39 40  2  0
 41 42  1  0
 41 43  1  0
 41 44  1  0
 44 45  2  0
 44 47  1  0
 45 46  1  0
 45 49  1  0
 47 48  1  0
 47 51  2  0
 49 50  1  0
 49 53  2  0
 51 52  1  0
 51 53  1  0
 53 54  1  0
 55 56  1  0
 55 57  1  0
 57 58  1  6
 57 59  1  0
 57 61  1  0
 59 60  2  0
 61 62  1  0
 61 63  1  0
 61 67  1  0
 63 64  1  0
 63 65  1  0
 63 66  1  0
 67 68  1  0
 67 69  1  0
 67 70  1  0
 71 72  1  0
 71 73  1  0
 73 74  1  1
 73 75  1  0
 73 77  1  0
 75 76  2  0
 77 78  1  6
 77 79  1  0
 77 82  1  0
 79 80  1  0
 79 81  1  0
 79 86  1  0
 82 83  1  0
 82 84  1  0
 82 85  1  0
 86 87  1  0
 86 88  1  0
 86 89  1  0
 90 91  1  0
 90 92  1  0
 92 93  1  6
 92 94  1  0
 92 96  1  0
 94 95  2  0
 96 97  1  0
 96 98  1  0
 96 99  1  0
 99100  1  0
 99101  2  0
100103  2  0
101102  1  0
101105  1  0
103104  1  0
103105  1  0
105251  1  0
106107  1  0
106108  1  0
108109  1  1
108110  1  0
108112  1  0
110111  2  0
112113  1  0
112114  1  0
112118  1  0
114115  1  0
114116  1  0
114117  1  0
118119  1  0
118120  1  0
118121  1  0
122123  1  0
122124  1  0
124125  1  1
124126  1  0
124128  1  0
126127  2  0
126132  1  0
128129  1  0
128130  1  0
128131  1  0
132133  1  0
132134  1  0
134135  1  1
134136  1  0
134138  1  0
136137  2  0
136143  1  0
138139  1  0
138140  1  0
138141  1  0
141142  1  0
143144  1  0
143145  1  0
145146  1  1
145147  1  0
145149  1  0
147148  2  0
149150  1  0
149151  1  0
149152  1  0
152153  1  0
152154  1  0
152158  1  0
154155  1  0
154156  1  0
154157  1  0
158159  1  0
158160  1  0
158161  1  0
162163  1  0
162164  1  0
164165  1  6
164166  1  0
164168  1  0
166167  2  0
166184  1  0
168169  1  0
168170  1  0
168171  1  0
171172  1  0
171173  1  0
171174  1  0
174175  1  0
174176  1  0
174177  1  0
177178  1  0
177179  1  0
177180  1  0
180181  1  0
180182  1  0
180183  1  0
184185  1  0
184186  1  0
186187  1  6
186188  1  0
186190  1  0
188189  2  0
190191  1  0
190192  1  0
190193  1  0
193194  2  0
193196  1  0
194195  1  0
194198  1  0
196197  1  0
196200  2  0
198199  1  0
198202  2  0
200201  1  0
200202  1  0
202203  1  0
203204  1  0
205206  1  0
205207  1  0
207208  1  6
207209  1  0
207211  1  0
209210  2  0
211212  1  0
211213  1  0
211214  1  0
214215  1  0
214216  1  0
214217  1  0
217218  1  0
217219  1  0
217220  1  0
220221  1  0
220222  1  0
222223  2  0
222226  1  0
223224  1  0
223225  1  0
226227  1  0
226228  1  0
229230  1  0
229231  1  0
231232  1  1
231233  1  0
231235  1  0
233234  2  0
235236  1  0
235237  1  0
235238  1  0
238239  2  0
238241  1  0
239240  1  0
239243  1  0
241242  1  0
241245  2  0
243244  1  0
243247  2  0
245246  1  0
245247  1  0
247248  1  0
248249  1  0
M  RAD  8   1   2   5   2  13   2  39   2  55   2  59   2  71   2  75   2
M  RAD  8  90   2  94   2 106   2 110   2 122   2 147   2 162   2 188   2
M  CHG  2 180   1 223   1
M  RAD  4 205   2 209   2 229   2 233   2
M  END
$$$$

     RDKit          3D

251245  0  0  0  0  0  0  0  0999 V2000
    8.2390   15.7430  -10.2460 N   0  0  0  0  0  2  0  0  0  0  0  0
    8.4060   14.8450   -9.7480 H   0  0  0  0  0  0  0  0  0  0  0  0
    7.1270   16.5820   -9.8330 C   0  0  2  0  0  0  0  0  0  0  0  0
    6.5240   16.7530  -10.7240 H   0  0  0  0  0  0  0  0  0  0  0  0
    7.5010   17.9630   -9.3590 C   0  0  0  0  0  3  0  0  0  0  0  0
    8.3130   18.1090   -8.4540 O   0  0  0  0  0  0  0  0  0  0  0  0
    6.3630   15.8620   -8.7680 C   0  0  0  0  0  0  0  0  0  0  0  0
    7.0440   15.5910   -7.9610 H   0  0  0  0  0  0  0  0  0  0  0  0
    5.5850   16.5200   -8.3800 H   0  0  0  0  0  0  0  0  0  0  0  0
    5.7360   14.6350   -9.3040 C   0  0  0  0  0  0  0  0  0  0  0  0
    4.8520   14.7920  -10.1880 O   0  0  0  0  0  0  0  0  0  0  0  0
    6.1520   13.5130   -8.8840 O   0  0  0  0  0  0  0  0  0  0  0  0
    1.6580   16.8130  -11.9920 N   0  0  0  0  0  2  0  0  0  0  0  0
    2.3630   16.6600  -11.2430 H   0  0  0  0  0  0  0  0  0  0  0  0
    0.5750   15.8710  -12.1280 C   0  0  2  0  0  0  0  0  0  0  0  0
    0.1290   15.9910  -13.1150 H   0  0  0  0  0  0  0  0  0  0  0  0
   -0.5220   16.1130  -11.1130 C   0  0  0  0  0  0  0  0  0  0  0  0
   -0.2990   16.7340  -10.0760 O   0  0  0  0  0  0  0  0  0  0  0  0
    1.1300   14.4960  -11.9520 C   0  0  0  0  0  0  0  0  0  0  0  0
    0.3140   13.7740  -11.9180 H   0  0  0  0  0  0  0  0  0  0  0  0
    1.6970   14.4460  -11.0220 H   0  0  0  0  0  0  0  0  0  0  0  0
    1.9940   14.1960  -13.0610 O   0  0  0  0  0  0  0  0  0  0  0  0
    2.3660   13.2850  -12.9510 H   0  0  0  0  0  0  0  0  0  0  0  0
   -1.7070   15.5990  -11.3820 N   0  0  0  0  0  0  0  0  0  0  0  0
   -1.8300   15.0390  -12.2500 H   0  0  0  0  0  0  0  0  0  0  0  0
   -2.8500   15.7940  -10.4960 C   0  0  2  0  0  0  0  0  0  0  0  0
   -2.4940   15.6940   -9.4710 H   0  0  0  0  0  0  0  0  0  0  0  0
   -3.9360   14.7420  -10.7100 C   0  0  0  0  0  0  0  0  0  0  0  0
   -4.1170   14.2150  -11.8220 O   0  0  0  0  0  0  0  0  0  0  0  0
   -3.4310   17.1680  -10.7260 C   0  0  0  0  0  0  0  0  0  0  0  0
   -3.6970   17.2780  -11.7770 H   0  0  0  0  0  0  0  0  0  0  0  0
   -2.6920   17.9230  -10.4590 H   0  0  0  0  0  0  0  0  0  0  0  0
   -4.5930   17.3400   -9.9250 O   0  0  0  0  0  0  0  0  0  0  0  0
   -4.9690   18.2430  -10.0800 H   0  0  0  0  0  0  0  0  0  0  0  0
   -4.6520   14.4140   -9.6350 N   0  0  0  0  0  0  0  0  0  0  0  0
   -4.3590   14.7920   -8.7110 H   0  0  0  0  0  0  0  0  0  0  0  0
   -5.8320   13.5460   -9.6910 C   0  0  2  0  0  0  0  0  0  0  0  0
   -5.6450   12.7780  -10.4420 H   0  0  0  0  0  0  0  0  0  0  0  0
   -7.0770   14.3290  -10.1220 C   0  0  0  0  0  3  0  0  0  0  0  0
   -8.0250   13.7390  -10.5890 O   0  0  0  0  0  0  0  0  0  0  0  0
   -6.0610   12.8570   -8.3570 C   0  0  0  0  0  0  0  0  0  0  0  0
   -5.9730   13.6020   -7.5670 H   0  0  0  0  0  0  0  0  0  0  0  0
   -7.0700   12.4440   -8.3540 H   0  0  0  0  0  0  0  0  0  0  0  0
   -5.0730   11.7210   -8.0610 C   0  0  0  0  0  0  0  0  0  0  0  0
   -4.0720   11.8810   -7.1020 C   0  0  0  0  0  0  0  0  0  0  0  0
   -3.9860   12.8270   -6.5670 H   0  0  0  0  0  0  0  0  0  0  0  0
   -5.1740   10.4980   -8.7080 C   0  0  0  0  0  0  0  0  0  0  0  0
   -5.9560   10.3530   -9.4530 H   0  0  0  0  0  0  0  0  0  0  0  0
   -3.1820   10.8480   -6.8190 C   0  0  0  0  0  0  0  0  0  0  0  0
   -2.4060   10.9870   -6.0660 H   0  0  0  0  0  0  0  0  0  0  0  0
   -4.2920    9.4420   -8.4250 C   0  0  0  0  0  0  0  0  0  0  0  0
   -4.4060    8.4830   -8.9310 H   0  0  0  0  0  0  0  0  0  0  0  0
   -3.2860    9.6220   -7.5080 C   0  0  0  0  0  0  0  0  0  0  0  0
   -2.5720    8.8220   -7.3140 H   0  0  0  0  0  0  0  0  0  0  0  0
   -3.3140    5.0230  -13.0570 N   0  0  0  0  0  2  0  0  0  0  0  0
   -4.1400    5.6150  -12.8370 H   0  0  0  0  0  0  0  0  0  0  0  0
   -2.5170    4.4610  -11.9940 C   0  0  2  0  0  0  0  0  0  0  0  0
   -1.7250    3.8470  -12.4230 H   0  0  0  0  0  0  0  0  0  0  0  0
   -3.4380    3.6400  -11.1070 C   0  0  0  0  0  3  0  0  0  0  0  0
   -4.4710    4.1900  -10.6370 O   0  0  0  0  0  0  0  0  0  0  0  0
   -1.8540    5.5840  -11.1350 C   0  0  0  0  0  0  0  0  0  0  0  0
   -2.6490    6.2450  -10.7900 H   0  0  0  0  0  0  0  0  0  0  0  0
   -1.1450    4.9970   -9.9330 C   0  0  0  0  0  0  0  0  0  0  0  0
   -1.8650    4.4610   -9.3150 H   0  0  0  0  0  0  0  0  0  0  0  0
   -0.3700    4.3090  -10.2700 H   0  0  0  0  0  0  0  0  0  0  0  0
   -0.6920    5.8000   -9.3520 H   0  0  0  0  0  0  0  0  0  0  0  0
   -0.8790    6.3820  -11.9530 C   0  0  0  0  0  0  0  0  0  0  0  0
   -0.0980    5.7220  -12.3300 H   0  0  0  0  0  0  0  0  0  0  0  0
   -1.4020    6.8440  -12.7900 H   0  0  0  0  0  0  0  0  0  0  0  0
   -0.4320    7.1570  -11.3300 H   0  0  0  0  0  0  0  0  0  0  0  0
   -4.5210    2.0210   -7.7850 N   0  0  0  0  0  2  0  0  0  0  0  0
   -5.4600    2.1270   -8.2190 H   0  0  0  0  0  0  0  0  0  0  0  0
   -4.3760    2.2860   -6.3400 C   0  0  2  0  0  0  0  0  0  0  0  0
   -3.3700    1.9630   -6.0710 H   0  0  0  0  0  0  0  0  0  0  0  0
   -5.3740    1.4700   -5.5200 C   0  0  0  0  0  3  0  0  0  0  0  0
   -6.6090    1.7400   -5.5300 O   0  0  0  0  0  0  0  0  0  0  0  0
   -4.4620    3.8040   -5.9870 C   0  0  2  0  0  0  0  0  0  0  0  0
   -5.4400    4.1780   -6.2900 H   0  0  0  0  0  0  0  0  0  0  0  0
   -3.3750    4.5860   -6.7450 C   0  0  0  0  0  0  0  0  0  0  0  0
   -2.4260    4.4330   -6.2310 H   0  0  0  0  0  0  0  0  0  0  0  0
   -3.3090    4.1820   -7.7550 H   0  0  0  0  0  0  0  0  0  0  0  0
   -4.3050    4.0130   -4.4580 C   0  0  0  0  0  0  0  0  0  0  0  0
   -5.1000    3.4810   -3.9360 H   0  0  0  0  0  0  0  0  0  0  0  0
   -3.3370    3.6280   -4.1370 H   0  0  0  0  0  0  0  0  0  0  0  0
   -4.3670    5.0770   -4.2300 H   0  0  0  0  0  0  0  0  0  0  0  0
   -3.6210    6.0930   -6.8510 C   0  0  0  0  0  0  0  0  0  0  0  0
   -4.5590    6.2710   -7.3760 H   0  0  0  0  0  0  0  0  0  0  0  0
   -3.6760    6.5220   -5.8510 H   0  0  0  0  0  0  0  0  0  0  0  0
   -2.8020    6.5560   -7.4010 H   0  0  0  0  0  0  0  0  0  0  0  0
   -7.1030    4.9550  -11.2140 N   0  0  0  0  0  2  0  0  0  0  0  0
   -6.1220    4.6450  -11.0650 H   0  0  0  0  0  0  0  0  0  0  0  0
   -7.3690    6.3930  -11.2260 C   0  0  2  0  0  0  0  0  0  0  0  0
   -8.4260    6.5500  -11.4390 H   0  0  0  0  0  0  0  0  0  0  0  0
   -6.5510    7.1110  -12.3230 C   0  0  0  0  0  3  0  0  0  0  0  0
   -5.3670    6.8340  -12.4820 O   0  0  0  0  0  0  0  0  0  0  0  0
   -6.9990    6.9690   -9.8590 C   0  0  0  0  0  0  0  0  0  0  0  0
   -5.9460    6.7590   -9.6690 H   0  0  0  0  0  0  0  0  0  0  0  0
   -7.1550    8.0480   -9.8840 H   0  0  0  0  0  0  0  0  0  0  0  0
   -7.8100    6.3970   -8.7320 C   0  0  0  0  0  0  0  0  0  0  0  0
   -9.1120    6.7880   -8.4820 N   0  0  0  0  0  0  0  0  0  0  0  0
   -7.5200    5.4300   -7.8250 C   0  0  0  0  0  0  0  0  0  0  0  0
   -6.5730    4.9000   -7.7210 H   0  0  0  0  0  0  0  0  0  0  0  0
   -9.5840    6.0790   -7.4730 C   0  0  0  0  0  0  0  0  0  0  0  0
  -10.5840    6.1660   -7.0470 H   0  0  0  0  0  0  0  0  0  0  0  0
   -8.6430    5.2470   -7.0660 N   0  0  0  0  0  0  0  0  0  0  0  0
   -4.3430    9.9870  -13.8600 N   0  0  0  0  0  2  0  0  0  0  0  0
   -3.9430    9.2670  -14.4950 H   0  0  0  0  0  0  0  0  0  0  0  0
   -3.4660   11.0950  -13.4060 C   0  0  2  0  0  0  0  0  0  0  0  0
   -3.9980   11.6020  -12.6010 H   0  0  0  0  0  0  0  0  0  0  0  0
   -3.1980   12.0700  -14.5610 C   0  0  0  0  0  3  0  0  0  0  0  0
   -2.6940   11.6660  -15.6100 O   0  0  0  0  0  0  0  0  0  0  0  0
   -2.1230   10.5980  -12.8370 C   0  0  0  0  0  0  0  0  0  0  0  0
   -1.6160   10.0380  -13.6230 H   0  0  0  0  0  0  0  0  0  0  0  0
   -1.2160   11.7770  -12.4230 C   0  0  0  0  0  0  0  0  0  0  0  0
   -1.0140   12.4010  -13.2930 H   0  0  0  0  0  0  0  0  0  0  0  0
   -1.7190   12.3690  -11.6580 H   0  0  0  0  0  0  0  0  0  0  0  0
   -0.2780   11.3900  -12.0260 H   0  0  0  0  0  0  0  0  0  0  0  0
   -2.3600    9.6900  -11.6480 C   0  0  0  0  0  0  0  0  0  0  0  0
   -2.8940   10.2400  -10.8730 H   0  0  0  0  0  0  0  0  0  0  0  0
   -2.9540    8.8310  -11.9610 H   0  0  0  0  0  0  0  0  0  0  0  0
   -1.4020    9.3470  -11.2570 H   0  0  0  0  0  0  0  0  0  0  0  0
   10.6540   11.3050   -5.5760 N   0  0  0  0  0  2  0  0  0  0  0  0
   10.3920   12.2850   -5.8030 H   0  0  0  0  0  0  0  0  0  0  0  0
   10.0940   10.6720   -4.3490 C   0  0  2  0  0  0  0  0  0  0  0  0
   10.8680    9.9920   -3.9930 H   0  0  0  0  0  0  0  0  0  0  0  0
    8.8430    9.8410   -4.6350 C   0  0  0  0  0  0  0  0  0  0  0  0
    8.3760    9.1070   -3.7350 O   0  0  0  0  0  0  0  0  0  0  0  0
    9.8210   11.6790   -3.2540 C   0  0  0  0  0  0  0  0  0  0  0  0
   10.7510   12.1790   -2.9810 H   0  0  0  0  0  0  0  0  0  0  0  0
    9.1020   12.4160   -3.6110 H   0  0  0  0  0  0  0  0  0  0  0  0
    9.4140   11.1650   -2.3830 H   0  0  0  0  0  0  0  0  0  0  0  0
    8.3280    9.9240   -5.8760 N   0  0  0  0  0  0  0  0  0  0  0  0
    8.8050   10.5390   -6.5650 H   0  0  0  0  0  0  0  0  0  0  0  0
    7.1420    9.2010   -6.3060 C   0  0  2  0  0  0  0  0  0  0  0  0
    6.4000    9.3360   -5.5190 H   0  0  0  0  0  0  0  0  0  0  0  0
    7.4250    7.7530   -6.4980 C   0  0  0  0  0  0  0  0  0  0  0  0
    8.5700    7.2700   -6.4620 O   0  0  0  0  0  0  0  0  0  0  0  0
    6.6180    9.7450   -7.6390 C   0  0  0  0  0  0  0  0  0  0  0  0
    5.6190    9.3460   -7.8150 H   0  0  0  0  0  0  0  0  0  0  0  0
    7.2840    9.4210   -8.4390 H   0  0  0  0  0  0  0  0  0  0  0  0
    6.5530   11.1910   -7.6390 O   0  0  0  0  0  0  0  0  0  0  0  0
    6.2110   11.5050   -8.5140 H   0  0  0  0  0  0  0  0  0  0  0  0
    6.3550    7.0580   -6.8100 N   0  0  0  0  0  0  0  0  0  0  0  0
    5.4610    7.5640   -6.9720 H   0  0  0  0  0  0  0  0  0  0  0  0
    6.3700    5.6400   -6.9350 C   0  0  2  0  0  0  0  0  0  0  0  0
    7.1620    5.1570   -6.3640 H   0  0  0  0  0  0  0  0  0  0  0  0
    6.5790    5.3360   -8.4090 C   0  0  0  0  0  3  0  0  0  0  0  0
    6.0940    6.0730   -9.2600 O   0  0  0  0  0  0  0  0  0  0  0  0
    5.0220    5.1190   -6.4090 C   0  0  0  0  0  0  0  0  0  0  0  0
    4.2350    5.7010   -6.8870 H   0  0  0  0  0  0  0  0  0  0  0  0
    4.9330    4.0750   -6.7090 H   0  0  0  0  0  0  0  0  0  0  0  0
    4.7900    5.1880   -4.8740 C   0  0  0  0  0  0  0  0  0  0  0  0
    5.0100    6.2120   -4.5710 H   0  0  0  0  0  0  0  0  0  0  0  0
    3.3110    4.7880   -4.5700 C   0  0  0  0  0  0  0  0  0  0  0  0
    2.6380    5.4790   -5.0770 H   0  0  0  0  0  0  0  0  0  0  0  0
    3.1300    3.7740   -4.9260 H   0  0  0  0  0  0  0  0  0  0  0  0
    3.1370    4.8330   -3.4950 H   0  0  0  0  0  0  0  0  0  0  0  0
    5.7270    4.2640   -4.0560 C   0  0  0  0  0  0  0  0  0  0  0  0
    5.5710    3.2290   -4.3610 H   0  0  0  0  0  0  0  0  0  0  0  0
    6.7640    4.5460   -4.2400 H   0  0  0  0  0  0  0  0  0  0  0  0
    5.5030    4.3690   -2.9940 H   0  0  0  0  0  0  0  0  0  0  0  0
    5.3050    3.2970  -10.3550 N   0  0  0  0  0  2  0  0  0  0  0  0
    5.3190    3.2100   -9.3190 H   0  0  0  0  0  0  0  0  0  0  0  0
    4.1120    2.9140  -11.0930 C   0  0  2  0  0  0  0  0  0  0  0  0
    4.3770    2.2010  -11.8730 H   0  0  0  0  0  0  0  0  0  0  0  0
    3.5250    4.1710  -11.7290 C   0  0  0  0  0  0  0  0  0  0  0  0
    2.8290    4.0740  -12.7370 O   0  0  0  0  0  0  0  0  0  0  0  0
    3.0890    2.1810  -10.2000 C   0  0  0  0  0  0  0  0  0  0  0  0
    2.2390    1.8870  -10.8160 H   0  0  0  0  0  0  0  0  0  0  0  0
    3.5630    1.2900   -9.7890 H   0  0  0  0  0  0  0  0  0  0  0  0
    2.5850    3.0260   -9.0590 C   0  0  0  0  0  0  0  0  0  0  0  0
    3.2850    2.9380   -8.2280 H   0  0  0  0  0  0  0  0  0  0  0  0
    2.5440    4.0640   -9.3890 H   0  0  0  0  0  0  0  0  0  0  0  0
    1.2080    2.6210   -8.5730 C   0  0  0  0  0  0  0  0  0  0  0  0
    0.7530    3.4710   -8.0650 H   0  0  0  0  0  0  0  0  0  0  0  0
    0.6000    2.3470   -9.4350 H   0  0  0  0  0  0  0  0  0  0  0  0
    1.2480    1.4500   -7.6160 C   0  0  0  0  0  0  0  0  0  0  0  0
    2.1300    1.5540   -6.9850 H   0  0  0  0  0  0  0  0  0  0  0  0
    1.3270    0.5330   -8.2000 H   0  0  0  0  0  0  0  0  0  0  0  0
    0.0220    1.3380   -6.7120 N   0  0  0  0  0  4  0  0  0  0  0  0
   -0.0630    2.2000   -6.1370 H   0  0  0  0  0  0  0  0  0  0  0  0
   -0.8300    1.2250   -7.2980 H   0  0  0  0  0  0  0  0  0  0  0  0
    0.1270    0.5130   -6.0880 H   0  0  0  0  0  0  0  0  0  0  0  0
    3.8150    5.3320  -11.1570 N   0  0  0  0  0  0  0  0  0  0  0  0
    4.3440    5.3460  -10.2620 H   0  0  0  0  0  0  0  0  0  0  0  0
    3.4060    6.5700  -11.7600 C   0  0  2  0  0  0  0  0  0  0  0  0
    2.6010    6.3500  -12.4610 H   0  0  0  0  0  0  0  0  0  0  0  0
    4.5830    7.2000  -12.5340 C   0  0  0  0  0  3  0  0  0  0  0  0
    4.3900    7.6850  -13.6440 O   0  0  0  0  0  0  0  0  0  0  0  0
    2.8330    7.5740  -10.6990 C   0  0  0  0  0  0  0  0  0  0  0  0
    1.7520    7.4410  -10.6510 H   0  0  0  0  0  0  0  0  0  0  0  0
    3.2710    7.3350   -9.7300 H   0  0  0  0  0  0  0  0  0  0  0  0
    3.1220    9.0400  -11.0060 C   0  0  0  0  0  0  0  0  0  0  0  0
    2.4190    9.6990  -11.9770 C   0  0  0  0  0  0  0  0  0  0  0  0
    1.6340    9.1740  -12.5200 H   0  0  0  0  0  0  0  0  0  0  0  0
    4.1580    9.7400  -10.3510 C   0  0  0  0  0  0  0  0  0  0  0  0
    4.7460    9.2230   -9.5930 H   0  0  0  0  0  0  0  0  0  0  0  0
    2.7000   11.0760  -12.2930 C   0  0  0  0  0  0  0  0  0  0  0  0
    2.1060   11.5870  -13.0510 H   0  0  0  0  0  0  0  0  0  0  0  0
    4.4620   11.1120  -10.6520 C   0  0  0  0  0  0  0  0  0  0  0  0
    5.2550   11.6380  -10.1200 H   0  0  0  0  0  0  0  0  0  0  0  0
    3.7150   11.7570  -11.6450 C   0  0  0  0  0  0  0  0  0  0  0  0
    3.9630   13.0750  -12.0290 O   0  0  0  0  0  0  0  0  0  0  0  0
    3.3260   13.3360  -12.7410 H   0  0  0  0  0  0  0  0  0  0  0  0
   10.9780    6.3050   -4.9480 N   0  0  0  0  0  2  0  0  0  0  0  0
   10.1880    5.9880   -5.5450 H   0  0  0  0  0  0  0  0  0  0  0  0
   10.7200    6.5580   -3.5270 C   0  0  2  0  0  0  0  0  0  0  0  0
   10.9690    7.6020   -3.3390 H   0  0  0  0  0  0  0  0  0  0  0  0
   11.6250    5.7190   -2.6400 C   0  0  0  0  0  3  0  0  0  0  0  0
   12.2670    6.2920   -1.7970 O   0  0  0  0  0  0  0  0  0  0  0  0
    9.2040    6.4100   -3.1540 C   0  0  0  0  0  0  0  0  0  0  0  0
    8.6640    7.2090   -3.6620 H   0  0  0  0  0  0  0  0  0  0  0  0
    8.8680    5.4460   -3.5360 H   0  0  0  0  0  0  0  0  0  0  0  0
    8.8060    6.4750   -1.6050 C   0  0  0  0  0  0  0  0  0  0  0  0
    9.0730    5.5270   -1.1380 H   0  0  0  0  0  0  0  0  0  0  0  0
    9.3690    7.2810   -1.1350 H   0  0  0  0  0  0  0  0  0  0  0  0
    7.2710    6.7340   -1.3710 C   0  0  0  0  0  0  0  0  0  0  0  0
    6.9860    6.4380   -0.3620 H   0  0  0  0  0  0  0  0  0  0  0  0
    6.6770    6.1740   -2.0940 H   0  0  0  0  0  0  0  0  0  0  0  0
    7.0740    8.1750   -1.5550 N   0  0  0  0  0  0  0  0  0  0  0  0
    7.9010    8.7810   -1.3810 H   0  0  0  0  0  0  0  0  0  0  0  0
    5.9530    8.7950   -1.9200 C   0  0  0  0  0  0  0  0  0  0  0  0
    4.8300    8.1290   -2.1550 N   0  0  0  0  0  4  0  0  0  0  0  0
    4.8090    7.0940   -2.0560 H   0  0  0  0  0  0  0  0  0  0  0  0
    3.9710    8.6420   -2.4390 H   0  0  0  0  0  0  0  0  0  0  0  0
    5.9750   10.1110   -2.0680 N   0  0  0  0  0  0  0  0  0  0  0  0
    6.8550   10.6390   -1.9000 H   0  0  0  0  0  0  0  0  0  0  0  0
    5.1120   10.6170   -2.3520 H   0  0  0  0  0  0  0  0  0  0  0  0
   11.6800   13.6970    2.1500 N   0  0  0  0  0  2  0  0  0  0  0  0
   11.0060   14.3750    1.7400 H   0  0  0  0  0  0  0  0  0  0  0  0
   12.3750   12.7460    1.2760 C   0  0  2  0  0  0  0  0  0  0  0  0
   12.5890   11.8420    1.8460 H   0  0  0  0  0  0  0  0  0  0  0  0
   13.6730   13.4000    0.7880 C   0  0  0  0  0  3  0  0  0  0  0  0
   13.6690   14.3550    0.0170 O   0  0  0  0  0  0  0  0  0  0  0  0
   11.5200   12.3200    0.0890 C   0  0  0  0  0  0  0  0  0  0  0  0
   11.3570   13.1990   -0.5350 H   0  0  0  0  0  0  0  0  0  0  0  0
   12.0810   11.5750   -0.4740 H   0  0  0  0  0  0  0  0  0  0  0  0
   10.1640   11.7270    0.4160 C   0  0  0  0  0  0  0  0  0  0  0  0
   10.0310   10.3500    0.7370 C   0  0  0  0  0  0  0  0  0  0  0  0
   10.9170    9.7150    0.7680 H   0  0  0  0  0  0  0  0  0  0  0  0
    9.0060   12.5450    0.3790 C   0  0  0  0  0  0  0  0  0  0  0  0
    9.1020   13.6000    0.1210 H   0  0  0  0  0  0  0  0  0  0  0  0
    8.7740    9.8000    1.0140 C   0  0  0  0  0  0  0  0  0  0  0  0
    8.6750    8.7420    1.2580 H   0  0  0  0  0  0  0  0  0  0  0  0
    7.7410   12.0170    0.6690 C   0  0  0  0  0  0  0  0  0  0  0  0
    6.8570   12.6550    0.6610 H   0  0  0  0  0  0  0  0  0  0  0  0
    7.6340   10.6360    0.9730 C   0  0  0  0  0  0  0  0  0  0  0  0
    6.3730   10.1120    1.2340 O   0  0  0  0  0  0  0  0  0  0  0  0
    6.4530    9.1450    1.4290 H   0  0  0  0  0  0  0  0  0  0  0  0
    6.8140   13.4770   -8.2220 H   0  0  0  0  0  0  0  0  0  0  0  0
   -8.7350    4.5970   -6.3320 H   0  0  0  0  0  0  0  0  0  0  0  0
  1  2  1  0
  1  3  1  0
  3  4  1  6
  3  5  1  0
  3  7  1  0
  5  6  2  0
  7  8  1  0
  7  9  1  0
  7 10  1  0
 10 11  2  0
 10 12  1  0
 12250  1  0
 13 14  1  0
 13 15  1  0
 15 16  1  6
 15 17  1  0
 15 19  1  0
 17 18  2  0
 17 24  1  0
 19 20  1  0
 19 21  1  0
 19 22  1  0
 22 23  1  0
 24 25  1  0
 24 26  1  0
 26 27  1  1
 26 28  1  0
 26 30  1  0
 28 29  2  0
 28 35  1  0
 30 31  1  0
 30 32  1  0
 30 33  1  0
 33 34  1  0
 35 36  1  0
 35 37  1  0
 37 38  1  6
 37 39  1  0
 37 41  1  0
 39 40  2  0
 41 42  1  0
 41 43  1  0
 41 44  1  0
 44 45  2  0
 44 47  1  0
 45 46  1  0
 45 49  1  0
 47 48  1  0
 47 51  2  0
 49 50  1  0
 49 53  2  0
 51 52  1  0
 51 53  1  0
 53 54  1  0
 55 56  1  0
 55 57  1  0
 57 58  1  6
 57 59  1  0
 57 61  1  0
 59 60  2  0
 61 62  1  0
 61 63  1  0
 61 67  1  0
 63 64  1  0
 63 65  1  0
 63 66  1  0
 67 68  1  0
 67 69  1  0
 67 70  1  0
 71 72  1  0
 71 73  1  0
 73 74  1  1
 73 75  1  0
 73 77  1  0
 75 76  2  0
 77 78  1  6
 77 79  1  0
 77 82  1  0
 79 80  1  0
 79 81  1  0
 79 86  1  0
 82 83  1  0
 82 84  1  0
 82 85  1  0
 86 87  1  0
 86 88  1  0
 86 89  1  0
 90 91  1  0
 90 92  1  0
 92 93  1  6
 92 94  1  0
 92 96  1  0
 94 95  2  0
 96 97  1  0
 96 98  1  0
 96 99  1  0
 99100  1  0
 99101  2  0
100103  2  0
101102  1  0
101105  1  0
103104  1  0
103105  1  0
105251  1  0
106107  1  0
106108  1  0
108109  1  1
108110  1  0
108112  1  0
110111  2  0
112113  1  0
112114  1  0
112118  1  0
114115  1  0
114116  1  0
114117  1  0
118119  1  0
118120  1  0
118121  1  0
122123  1  0
122124  1  0
124125  1  1
124126  1  0
124128  1  0
126127  2  0
126132  1  0
128129  1  0
128130  1  0
128131  1  0
132133  1  0
132134  1  0
134135  1  1
134136  1  0
134138  1  0
136137  2  0
136143  1  0
138139  1  0
138140  1  0
138141  1  0
141142  1  0
143144  1  0
143145  1  0
145146  1  1
145147  1  0
145149  1  0
147148  2  0
149150  1  0
149151  1  0
149152  1  0
152153  1  0
152154  1  0
152158  1  0
154155  1  0
154156  1  0
154157  1  0
158159  1  0
158160  1  0
158161  1  0
162163  1  0
162164  1  0
164165  1  6
164166  1  0
164168  1  0
166167  2  0
166184  1  0
168169  1  0
168170  1  0
168171  1  0
171172  1  0
171173  1  0
171174  1  0
174175  1  0
174176  1  0
174177  1  0
177178  1  0
177179  1  0
177180  1  0
180181  1  0
180182  1  0
180183  1  0
184185  1  0
184186  1  0
186187  1  6
186188  1  0
186190  1  0
188189  2  0
190191  1  0
190192  1  0
190193  1  0
193194  2  0
193196  1  0
194195  1  0
194198  1  0
196197  1  0
196200  2  0
198199  1  0
198202  2  0
200201  1  0
200202  1  0
202203  1  0
203204  1  0
205206  1  0
205207  1  0
207208  1  6
207209  1  0
207211  1  0
209210  2  0
211212  1  0
211213  1  0
211214  1  0
214215  1  0
214216  1  0
214217  1  0
217218  1  0
217219  1  0
217220  1  0
220221  1  0
220222  1  0
222223  2  0
222226  1  0
223224  1  0
223225  1  0
226227  1  0
226228  1  0
229230  1  0
229231  1  0
231232  1  1
231233  1  0
231235  1  0
233234  2  0
235236  1  0
235237  1  0
235238  1  0
238239  2  0
238241  1  0
239240  1  0
239243  1  0
241242  1  0
241245  2  0
243244  1  0
243247  2  0
245246  1  0
245247  1  0
247248  1  0
248249  1  0
M  RAD  8   1   2   5   2  13   2  39   2  55   2  59   2  71   2  75   2
M  RAD  8  90   2  94   2 106   2 110   2 122   2 147   2 162   2 188   2
M  CHG  2 180   1 223   1
M  RAD  4 205   2 209   2 229   2 233   2
M  END
$$$$

     RDKit          3D

251245  0  0  0  0  0  0  0  0999 V2000
    8.2390   15.7430  -10.2460 N   0  0  0  0  0  2  0  0  0  0  0  0
    8.4060   14.8450   -9.7480 H   0  0  0  0  0  0  0  0  0  0  0  0
    7.1270   16.5820   -9.8330 C   0  0  2  0  0  0  0  0  0  0  0  0
    6.5240   16.7530  -10.7240 H   0  0  0  0  0  0  0  0  0  0  0  0
    7.5010   17.9630   -9.3590 C   0  0  0  0  0  3  0  0  0  0  0  0
    8.3130   18.1090   -8.4540 O   0  0  0  0  0  0  0  0  0  0  0  0
    6.3630   15.8620   -8.7680 C   0  0  0  0  0  0  0  0  0  0  0  0
    7.0440   15.5910   -7.9610 H   0  0  0  0  0  0  0  0  0  0  0  0
    5.5850   16.5200   -8.3800 H   0  0  0  0  0  0  0  0  0  0  0  0
    5.7360   14.6350   -9.3040 C   0  0  0  0  0  0  0  0  0  0  0  0
    4.8520   14.7920  -10.1880 O   0  0  0  0  0  0  0  0  0  0  0  0
    6.1520   13.5130   -8.8840 O   0  0  0  0  0  0  0  0  0  0  0  0
    1.6580   16.8130  -11.9920 N   0  0  0  0  0  2  0  0  0  0  0  0
    2.3630   16.6600  -11.2430 H   0  0  0  0  0  0  0  0  0  0  0  0
    0.5750   15.8710  -12.1280 C   0  0  2  0  0  0  0  0  0  0  0  0
    0.1290   15.9910  -13.1150 H   0  0  0  0  0  0  0  0  0  0  0  0
   -0.5220   16.1130  -11.1130 C   0  0  0  0  0  0  0  0  0  0  0  0
   -0.2990   16.7340  -10.0760 O   0  0  0  0  0  0  0  0  0  0  0  0
    1.1300   14.4960  -11.9520 C   0  0  0  0  0  0  0  0  0  0  0  0
    0.3140   13.7740  -11.9180 H   0  0  0  0  0  0  0  0  0  0  0  0
    1.6970   14.4460  -11.0220 H   0  0  0  0  0  0  0  0  0  0  0  0
    1.9940   14.1960  -13.0610 O   0  0  0  0  0  0  0  0  0  0  0  0
    2.3660   13.2850  -12.9510 H   0  0  0  0  0  0  0  0  0  0  0  0
   -1.7070   15.5990  -11.3820 N   0  0  0  0  0  0  0  0  0  0  0  0
   -1.8300   15.0390  -12.2500 H   0  0  0  0  0  0  0  0  0  0  0  0
   -2.8500   15.7940  -10.4960 C   0  0  2  0  0  0  0  0  0  0  0  0
   -2.4940   15.6940   -9.4710 H   0  0  0  0  0  0  0  0  0  0  0  0
   -3.9360   14.7420  -10.7100 C   0  0  0  0  0  0  0  0  0  0  0  0
   -4.1170   14.2150  -11.8220 O   0  0  0  0  0  0  0  0  0  0  0  0
   -3.4310   17.1680  -10.7260 C   0  0  0  0  0  0  0  0  0  0  0  0
   -3.6970   17.2780  -11.7770 H   0  0  0  0  0  0  0  0  0  0  0  0
   -2.6920   17.9230  -10.4590 H   0  0  0  0  0  0  0  0  0  0  0  0
   -4.5930   17.3400   -9.9250 O   0  0  0  0  0  0  0  0  0  0  0  0
   -4.9690   18.2430  -10.0800 H   0  0  0  0  0  0  0  0  0  0  0  0
   -4.6520   14.4140   -9.6350 N   0  0  0  0  0  0  0  0  0  0  0  0
   -4.3590   14.7920   -8.7110 H   0  0  0  0  0  0  0  0  0  0  0  0
   -5.8320   13.5460   -9.6910 C   0  0  2  0  0  0  0  0  0  0  0  0
   -5.6450   12.7780  -10.4420 H   0  0  0  0  0  0  0  0  0  0  0  0
   -7.0770   14.3290  -10.1220 C   0  0  0  0  0  3  0  0  0  0  0  0
   -8.0250   13.7390  -10.5890 O   0  0  0  0  0  0  0  0  0  0  0  0
   -6.0610   12.8570   -8.3570 C   0  0  0  0  0  0  0  0  0  0  0  0
   -5.9730   13.6020   -7.5670 H   0  0  0  0  0  0  0  0  0  0  0  0
   -7.0700   12.4440   -8.3540 H   0  0  0  0  0  0  0  0  0  0  0  0
   -5.0730   11.7210   -8.0610 C   0  0  0  0  0  0  0  0  0  0  0  0
   -4.0720   11.8810   -7.1020 C   0  0  0  0  0  0  0  0  0  0  0  0
   -3.9860   12.8270   -6.5670 H   0  0  0  0  0  0  0  0  0  0  0  0
   -5.1740   10.4980   -8.7080 C   0  0  0  0  0  0  0  0  0  0  0  0
   -5.9560   10.3530   -9.4530 H   0  0  0  0  0  0  0  0  0  0  0  0
   -3.1820   10.8480   -6.8190 C   0  0  0  0  0  0  0  0  0  0  0  0
   -2.4060   10.9870   -6.0660 H   0  0  0  0  0  0  0  0  0  0  0  0
   -4.2920    9.4420   -8.4250 C   0  0  0  0  0  0  0  0  0  0  0  0
   -4.4060    8.4830   -8.9310 H   0  0  0  0  0  0  0  0  0  0  0  0
   -3.2860    9.6220   -7.5080 C   0  0  0  0  0  0  0  0  0  0  0  0
   -2.5720    8.8220   -7.3140 H   0  0  0  0  0  0  0  0  0  0  0  0
   -3.3140    5.0230  -13.0570 N   0  0  0  0  0  2  0  0  0  0  0  0
   -4.1400    5.6150  -12.8370 H   0  0  0  0  0  0  0  0  0  0  0  0
   -2.5170    4.4610  -11.9940 C   0  0  2  0  0  0  0  0  0  0  0  0
   -1.7250    3.8470  -12.4230 H   0  0  0  0  0  0  0  0  0  0  0  0
   -3.4380    3.6400  -11.1070 C   0  0  0  0  0  3  0  0  0  0  0  0
   -4.4710    4.1900  -10.6370 O   0  0  0  0  0  0  0  0  0  0  0  0
   -1.8540    5.5840  -11.1350 C   0  0  0  0  0  0  0  0  0  0  0  0
   -2.6490    6.2450  -10.7900 H   0  0  0  0  0  0  0  0  0  0  0  0
   -1.1450    4.9970   -9.9330 C   0  0  0  0  0  0  0  0  0  0  0  0
   -1.8650    4.4610   -9.3150 H   0  0  0  0  0  0  0  0  0  0  0  0
   -0.3700    4.3090  -10.2700 H   0  0  0  0  0  0  0  0  0  0  0  0
   -0.6920    5.8000   -9.3520 H   0  0  0  0  0  0  0  0  0  0  0  0
   -0.8790    6.3820  -11.9530 C   0  0  0  0  0  0  0  0  0  0  0  0
   -0.0980    5.7220  -12.3300 H   0  0  0  0  0  0  0  0  0  0  0  0
   -1.4020    6.8440  -12.7900 H   0  0  0  0  0  0  0  0  0  0  0  0
   -0.4320    7.1570  -11.3300 H   0  0  0  0  0  0  0  0  0  0  0  0
   -4.5210    2.0210   -7.7850 N   0  0  0  0  0  2  0  0  0  0  0  0
   -5.4600    2.1270   -8.2190 H   0  0  0  0  0  0  0  0  0  0  0  0
   -4.3760    2.2860   -6.3400 C   0  0  2  0  0  0  0  0  0  0  0  0
   -3.3700    1.9630   -6.0710 H   0  0  0  0  0  0  0  0  0  0  0  0
   -5.3740    1.4700   -5.5200 C   0  0  0  0  0  3  0  0  0  0  0  0
   -6.6090    1.7400   -5.5300 O   0  0  0  0  0  0  0  0  0  0  0  0
   -4.4620    3.8040   -5.9870 C   0  0  2  0  0  0  0  0  0  0  0  0
   -5.4400    4.1780   -6.2900 H   0  0  0  0  0  0  0  0  0  0  0  0
   -3.3750    4.5860   -6.7450 C   0  0  0  0  0  0  0  0  0  0  0  0
   -2.4260    4.4330   -6.2310 H   0  0  0  0  0  0  0  0  0  0  0  0
   -3.3090    4.1820   -7.7550 H   0  0  0  0  0  0  0  0  0  0  0  0
   -4.3050    4.0130   -4.4580 C   0  0  0  0  0  0  0  0  0  0  0  0
   -5.1000    3.4810   -3.9360 H   0  0  0  0  0  0  0  0  0  0  0  0
   -3.3370    3.6280   -4.1370 H   0  0  0  0  0  0  0  0  0  0  0  0
   -4.3670    5.0770   -4.2300 H   0  0  0  0  0  0  0  0  0  0  0  0
   -3.6210    6.0930   -6.8510 C   0  0  0  0  0  0  0  0  0  0  0  0
   -4.5590    6.2710   -7.3760 H   0  0  0  0  0  0  0  0  0  0  0  0
   -3.6760    6.5220   -5.8510 H   0  0  0  0  0  0  0  0  0  0  0  0
   -2.8020    6.5560   -7.4010 H   0  0  0  0  0  0  0  0  0  0  0  0
   -7.1030    4.9550  -11.2140 N   0  0  0  0  0  2  0  0  0  0  0  0
   -6.1220    4.6450  -11.0650 H   0  0  0  0  0  0  0  0  0  0  0  0
   -7.3690    6.3930  -11.2260 C   0  0  2  0  0  0  0  0  0  0  0  0
   -8.4260    6.5500  -11.4390 H   0  0  0  0  0  0  0  0  0  0  0  0
   -6.5510    7.1110  -12.3230 C   0  0  0  0  0  3  0  0  0  0  0  0
   -5.3670    6.8340  -12.4820 O   0  0  0  0  0  0  0  0  0  0  0  0
   -6.9990    6.9690   -9.8590 C   0  0  0  0  0  0  0  0  0  0  0  0
   -5.9460    6.7590   -9.6690 H   0  0  0  0  0  0  0  0  0  0  0  0
   -7.1550    8.0480   -9.8840 H   0  0  0  0  0  0  0  0  0  0  0  0
   -7.8100    6.3970   -8.7320 C   0  0  0  0  0  0  0  0  0  0  0  0
   -9.1120    6.7880   -8.4820 N   0  0  0  0  0  0  0  0  0  0  0  0
   -7.5200    5.4300   -7.8250 C   0  0  0  0  0  0  0  0  0  0  0  0
   -6.5730    4.9000   -7.7210 H   0  0  0  0  0  0  0  0  0  0  0  0
   -9.5840    6.0790   -7.4730 C   0  0  0  0  0  0  0  0  0  0  0  0
  -10.5840    6.1660   -7.0470 H   0  0  0  0  0  0  0  0  0  0  0  0
   -8.6430    5.2470   -7.0660 N   0  0  0  0  0  0  0  0  0  0  0  0
   -4.3430    9.9870  -13.8600 N   0  0  0  0  0  2  0  0  0  0  0  0
   -3.9430    9.2670  -14.4950 H   0  0  0  0  0  0  0  0  0  0  0  0
   -3.4660   11.0950  -13.4060 C   0  0  2  0  0  0  0  0  0  0  0  0
   -3.9980   11.6020  -12.6010 H   0  0  0  0  0  0  0  0  0  0  0  0
   -3.1980   12.0700  -14.5610 C   0  0  0  0  0  3  0  0  0  0  0  0
   -2.6940   11.6660  -15.6100 O   0  0  0  0  0  0  0  0  0  0  0  0
   -2.1230   10.5980  -12.8370 C   0  0  0  0  0  0  0  0  0  0  0  0
   -1.6160   10.0380  -13.6230 H   0  0  0  0  0  0  0  0  0  0  0  0
   -1.2160   11.7770  -12.4230 C   0  0  0  0  0  0  0  0  0  0  0  0
   -1.0140   12.4010  -13.2930 H   0  0  0  0  0  0  0  0  0  0  0  0
   -1.7190   12.3690  -11.6580 H   0  0  0  0  0  0  0  0  0  0  0  0
   -0.2780   11.3900  -12.0260 H   0  0  0  0  0  0  0  0  0  0  0  0
   -2.3600    9.6900  -11.6480 C   0  0  0  0  0  0  0  0  0  0  0  0
   -2.8940   10.2400  -10.8730 H   0  0  0  0  0  0  0  0  0  0  0  0
   -2.9540    8.8310  -11.9610 H   0  0  0  0  0  0  0  0  0  0  0  0
   -1.4020    9.3470  -11.2570 H   0  0  0  0  0  0  0  0  0  0  0  0
   10.6540   11.3050   -5.5760 N   0  0  0  0  0  2  0  0  0  0  0  0
   10.3920   12.2850   -5.8030 H   0  0  0  0  0  0  0  0  0  0  0  0
   10.0940   10.6720   -4.3490 C   0  0  2  0  0  0  0  0  0  0  0  0
   10.8680    9.9920   -3.9930 H   0  0  0  0  0  0  0  0  0  0  0  0
    8.8430    9.8410   -4.6350 C   0  0  0  0  0  0  0  0  0  0  0  0
    8.3760    9.1070   -3.7350 O   0  0  0  0  0  0  0  0  0  0  0  0
    9.8210   11.6790   -3.2540 C   0  0  0  0  0  0  0  0  0  0  0  0
   10.7510   12.1790   -2.9810 H   0  0  0  0  0  0  0  0  0  0  0  0
    9.1020   12.4160   -3.6110 H   0  0  0  0  0  0  0  0  0  0  0  0
    9.4140   11.1650   -2.3830 H   0  0  0  0  0  0  0  0  0  0  0  0
    8.3280    9.9240   -5.8760 N   0  0  0  0  0  0  0  0  0  0  0  0
    8.8050   10.5390   -6.5650 H   0  0  0  0  0  0  0  0  0  0  0  0
    7.1420    9.2010   -6.3060 C   0  0  2  0  0  0  0  0  0  0  0  0
    6.4000    9.3360   -5.5190 H   0  0  0  0  0  0  0  0  0  0  0  0
    7.4250    7.7530   -6.4980 C   0  0  0  0  0  0  0  0  0  0  0  0
    8.5700    7.2700   -6.4620 O   0  0  0  0  0  0  0  0  0  0  0  0
    6.6180    9.7450   -7.6390 C   0  0  0  0  0  0  0  0  0  0  0  0
    5.6190    9.3460   -7.8150 H   0  0  0  0  0  0  0  0  0  0  0  0
    7.2840    9.4210   -8.4390 H   0  0  0  0  0  0  0  0  0  0  0  0
    6.5530   11.1910   -7.6390 O   0  0  0  0  0  0  0  0  0  0  0  0
    6.2110   11.5050   -8.5140 H   0  0  0  0  0  0  0  0  0  0  0  0
    6.3550    7.0580   -6.8100 N   0  0  0  0  0  0  0  0  0  0  0  0
    5.4610    7.5640   -6.9720 H   0  0  0  0  0  0  0  0  0  0  0  0
    6.3700    5.6400   -6.9350 C   0  0  2  0  0  0  0  0  0  0  0  0
    7.1620    5.1570   -6.3640 H   0  0  0  0  0  0  0  0  0  0  0  0
    6.5790    5.3360   -8.4090 C   0  0  0  0  0  3  0  0  0  0  0  0
    6.0940    6.0730   -9.2600 O   0  0  0  0  0  0  0  0  0  0  0  0
    5.0220    5.1190   -6.4090 C   0  0  0  0  0  0  0  0  0  0  0  0
    4.2350    5.7010   -6.8870 H   0  0  0  0  0  0  0  0  0  0  0  0
    4.9330    4.0750   -6.7090 H   0  0  0  0  0  0  0  0  0  0  0  0
    4.7900    5.1880   -4.8740 C   0  0  0  0  0  0  0  0  0  0  0  0
    5.0100    6.2120   -4.5710 H   0  0  0  0  0  0  0  0  0  0  0  0
    3.3110    4.7880   -4.5700 C   0  0  0  0  0  0  0  0  0  0  0  0
    2.6380    5.4790   -5.0770 H   0  0  0  0  0  0  0  0  0  0  0  0
    3.1300    3.7740   -4.9260 H   0  0  0  0  0  0  0  0  0  0  0  0
    3.1370    4.8330   -3.4950 H   0  0  0  0  0  0  0  0  0  0  0  0
    5.7270    4.2640   -4.0560 C   0  0  0  0  0  0  0  0  0  0  0  0
    5.5710    3.2290   -4.3610 H   0  0  0  0  0  0  0  0  0  0  0  0
    6.7640    4.5460   -4.2400 H   0  0  0  0  0  0  0  0  0  0  0  0
    5.5030    4.3690   -2.9940 H   0  0  0  0  0  0  0  0  0  0  0  0
    5.3050    3.2970  -10.3550 N   0  0  0  0  0  2  0  0  0  0  0  0
    5.3190    3.2100   -9.3190 H   0  0  0  0  0  0  0  0  0  0  0  0
    4.1120    2.9140  -11.0930 C   0  0  2  0  0  0  0  0  0  0  0  0
    4.3770    2.2010  -11.8730 H   0  0  0  0  0  0  0  0  0  0  0  0
    3.5250    4.1710  -11.7290 C   0  0  0  0  0  0  0  0  0  0  0  0
    2.8290    4.0740  -12.7370 O   0  0  0  0  0  0  0  0  0  0  0  0
    3.0890    2.1810  -10.2000 C   0  0  0  0  0  0  0  0  0  0  0  0
    2.2390    1.8870  -10.8160 H   0  0  0  0  0  0  0  0  0  0  0  0
    3.5630    1.2900   -9.7890 H   0  0  0  0  0  0  0  0  0  0  0  0
    2.5850    3.0260   -9.0590 C   0  0  0  0  0  0  0  0  0  0  0  0
    3.2850    2.9380   -8.2280 H   0  0  0  0  0  0  0  0  0  0  0  0
    2.5440    4.0640   -9.3890 H   0  0  0  0  0  0  0  0  0  0  0  0
    1.2080    2.6210   -8.5730 C   0  0  0  0  0  0  0  0  0  0  0  0
    0.7530    3.4710   -8.0650 H   0  0  0  0  0  0  0  0  0  0  0  0
    0.6000    2.3470   -9.4350 H   0  0  0  0  0  0  0  0  0  0  0  0
    1.2480    1.4500   -7.6160 C   0  0  0  0  0  0  0  0  0  0  0  0
    2.1300    1.5540   -6.9850 H   0  0  0  0  0  0  0  0  0  0  0  0
    1.3270    0.5330   -8.2000 H   0  0  0  0  0  0  0  0  0  0  0  0
    0.0220    1.3380   -6.7120 N   0  0  0  0  0  4  0  0  0  0  0  0
   -0.0630    2.2000   -6.1370 H   0  0  0  0  0  0  0  0  0  0  0  0
   -0.8300    1.2250   -7.2980 H   0  0  0  0  0  0  0  0  0  0  0  0
    0.1270    0.5130   -6.0880 H   0  0  0  0  0  0  0  0  0  0  0  0
    3.8150    5.3320  -11.1570 N   0  0  0  0  0  0  0  0  0  0  0  0
    4.3440    5.3460  -10.2620 H   0  0  0  0  0  0  0  0  0  0  0  0
    3.4060    6.5700  -11.7600 C   0  0  2  0  0  0  0  0  0  0  0  0
    2.6010    6.3500  -12.4610 H   0  0  0  0  0  0  0  0  0  0  0  0
    4.5830    7.2000  -12.5340 C   0  0  0  0  0  3  0  0  0  0  0  0
    4.3900    7.6850  -13.6440 O   0  0  0  0  0  0  0  0  0  0  0  0
    2.8330    7.5740  -10.6990 C   0  0  0  0  0  0  0  0  0  0  0  0
    1.7520    7.4410  -10.6510 H   0  0  0  0  0  0  0  0  0  0  0  0
    3.2710    7.3350   -9.7300 H   0  0  0  0  0  0  0  0  0  0  0  0
    3.1220    9.0400  -11.0060 C   0  0  0  0  0  0  0  0  0  0  0  0
    2.4190    9.6990  -11.9770 C   0  0  0  0  0  0  0  0  0  0  0  0
    1.6340    9.1740  -12.5200 H   0  0  0  0  0  0  0  0  0  0  0  0
    4.1580    9.7400  -10.3510 C   0  0  0  0  0  0  0  0  0  0  0  0
    4.7460    9.2230   -9.5930 H   0  0  0  0  0  0  0  0  0  0  0  0
    2.7000   11.0760  -12.2930 C   0  0  0  0  0  0  0  0  0  0  0  0
    2.1060   11.5870  -13.0510 H   0  0  0  0  0  0  0  0  0  0  0  0
    4.4620   11.1120  -10.6520 C   0  0  0  0  0  0  0  0  0  0  0  0
    5.2550   11.6380  -10.1200 H   0  0  0  0  0  0  0  0  0  0  0  0
    3.7150   11.7570  -11.6450 C   0  0  0  0  0  0  0  0  0  0  0  0
    3.9630   13.0750  -12.0290 O   0  0  0  0  0  0  0  0  0  0  0  0
    3.3260   13.3360  -12.7410 H   0  0  0  0  0  0  0  0  0  0  0  0
   10.9780    6.3050   -4.9480 N   0  0  0  0  0  2  0  0  0  0  0  0
   10.1880    5.9880   -5.5450 H   0  0  0  0  0  0  0  0  0  0  0  0
   10.7200    6.5580   -3.5270 C   0  0  2  0  0  0  0  0  0  0  0  0
   10.9690    7.6020   -3.3390 H   0  0  0  0  0  0  0  0  0  0  0  0
   11.6250    5.7190   -2.6400 C   0  0  0  0  0  3  0  0  0  0  0  0
   12.2670    6.2920   -1.7970 O   0  0  0  0  0  0  0  0  0  0  0  0
    9.2040    6.4100   -3.1540 C   0  0  0  0  0  0  0  0  0  0  0  0
    8.6640    7.2090   -3.6620 H   0  0  0  0  0  0  0  0  0  0  0  0
    8.8680    5.4460   -3.5360 H   0  0  0  0  0  0  0  0  0  0  0  0
    8.8060    6.4750   -1.6050 C   0  0  0  0  0  0  0  0  0  0  0  0
    9.0730    5.5270   -1.1380 H   0  0  0  0  0  0  0  0  0  0  0  0
    9.3690    7.2810   -1.1350 H   0  0  0  0  0  0  0  0  0  0  0  0
    7.2710    6.7340   -1.3710 C   0  0  0  0  0  0  0  0  0  0  0  0
    6.9860    6.4380   -0.3620 H   0  0  0  0  0  0  0  0  0  0  0  0
    6.6770    6.1740   -2.0940 H   0  0  0  0  0  0  0  0  0  0  0  0
    7.0740    8.1750   -1.5550 N   0  0  0  0  0  0  0  0  0  0  0  0
    7.9010    8.7810   -1.3810 H   0  0  0  0  0  0  0  0  0  0  0  0
    5.9530    8.7950   -1.9200 C   0  0  0  0  0  0  0  0  0  0  0  0
    4.8300    8.1290   -2.1550 N   0  0  0  0  0  4  0  0  0  0  0  0
    4.8090    7.0940   -2.0560 H   0  0  0  0  0  0  0  0  0  0  0  0
    3.9710    8.6420   -2.4390 H   0  0  0  0  0  0  0  0  0  0  0  0
    5.9750   10.1110   -2.0680 N   0  0  0  0  0  0  0  0  0  0  0  0
    6.8550   10.6390   -1.9000 H   0  0  0  0  0  0  0  0  0  0  0  0
    5.1120   10.6170   -2.3520 H   0  0  0  0  0  0  0  0  0  0  0  0
   11.6800   13.6970    2.1500 N   0  0  0  0  0  2  0  0  0  0  0  0
   11.0060   14.3750    1.7400 H   0  0  0  0  0  0  0  0  0  0  0  0
   12.3750   12.7460    1.2760 C   0  0  2  0  0  0  0  0  0  0  0  0
   12.5890   11.8420    1.8460 H   0  0  0  0  0  0  0  0  0  0  0  0
   13.6730   13.4000    0.7880 C   0  0  0  0  0  3  0  0  0  0  0  0
   13.6690   14.3550    0.0170 O   0  0  0  0  0  0  0  0  0  0  0  0
   11.5200   12.3200    0.0890 C   0  0  0  0  0  0  0  0  0  0  0  0
   11.3570   13.1990   -0.5350 H   0  0  0  0  0  0  0  0  0  0  0  0
   12.0810   11.5750   -0.4740 H   0  0  0  0  0  0  0  0  0  0  0  0
   10.1640   11.7270    0.4160 C   0  0  0  0  0  0  0  0  0  0  0  0
   10.0310   10.3500    0.7370 C   0  0  0  0  0  0  0  0  0  0  0  0
   10.9170    9.7150    0.7680 H   0  0  0  0  0  0  0  0  0  0  0  0
    9.0060   12.5450    0.3790 C   0  0  0  0  0  0  0  0  0  0  0  0
    9.1020   13.6000    0.1210 H   0  0  0  0  0  0  0  0  0  0  0  0
    8.7740    9.8000    1.0140 C   0  0  0  0  0  0  0  0  0  0  0  0
    8.6750    8.7420    1.2580 H   0  0  0  0  0  0  0  0  0  0  0  0
    7.7410   12.0170    0.6690 C   0  0  0  0  0  0  0  0  0  0  0  0
    6.8570   12.6550    0.6610 H   0  0  0  0  0  0  0  0  0  0  0  0
    7.6340   10.6360    0.9730 C   0  0  0  0  0  0  0  0  0  0  0  0
    6.3730   10.1120    1.2340 O   0  0  0  0  0  0  0  0  0  0  0  0
    6.4530    9.1450    1.4290 H   0  0  0  0  0  0  0  0  0  0  0  0
    6.8140   13.4770   -8.2220 H   0  0  0  0  0  0  0  0  0  0  0  0
   -8.7350    4.5970   -6.3320 H   0  0  0  0  0  0  0  0  0  0  0  0
  1  2  1  0
  1  3  1  0
  3  4  1  6
  3  5  1  0
  3  7  1  0
  5  6  2  0
  7  8  1  0
  7  9  1  0
  7 10  1  0
 10 11  2  0
 10 12  1  0
 12250  1  0
 13 14  1  0
 13 15  1  0
 15 16  1  6
 15 17  1  0
 15 19  1  0
 17 18  2  0
 17 24  1  0
 19 20  1  0
 19 21  1  0
 19 22  1  0
 22 23  1  0
 24 25  1  0
 24 26  1  0
 26 27  1  1
 26 28  1  0
 26 30  1  0
 28 29  2  0
 28 35  1  0
 30 31  1  0
 30 32  1  0
 30 33  1  0
 33 34  1  0
 35 36  1  0
 35 37  1  0
 37 38  1  6
 37 39  1  0
 37 41  1  0
 39 40  2  0
 41 42  1  0
 41 43  1  0
 41 44  1  0
 44 45  2  0
 44 47  1  0
 45 46  1  0
 45 49  1  0
 47 48  1  0
 47 51  2  0
 49 50  1  0
 49 53  2  0
 51 52  1  0
 51 53  1  0
 53 54  1  0
 55 56  1  0
 55 57  1  0
 57 58  1  6
 57 59  1  0
 57 61  1  0
 59 60  2  0
 61 62  1  0
 61 63  1  0
 61 67  1  0
 63 64  1  0
 63 65  1  0
 63 66  1  0
 67 68  1  0
 67 69  1  0
 67 70  1  0
 71 72  1  0
 71 73  1  0
 73 74  1  1
 73 75  1  0
 73 77  1  0
 75 76  2  0
 77 78  1  6
 77 79  1  0
 77 82  1  0
 79 80  1  0
 79 81  1  0
 79 86  1  0
 82 83  1  0
 82 84  1  0
 82 85  1  0
 86 87  1  0
 86 88  1  0
 86 89  1  0
 90 91  1  0
 90 92  1  0
 92 93  1  6
 92 94  1  0
 92 96  1  0
 94 95  2  0
 96 97  1  0
 96 98  1  0
 96 99  1  0
 99100  1  0
 99101  2  0
100103  2  0
101102  1  0
101105  1  0
103104  1  0
103105  1  0
105251  1  0
106107  1  0
106108  1  0
108109  1  1
108110  1  0
108112  1  0
110111  2  0
112113  1  0
112114  1  0
112118  1  0
114115  1  0
114116  1  0
114117  1  0
118119  1  0
118120  1  0
118121  1  0
122123  1  0
122124  1  0
124125  1  1
124126  1  0
124128  1  0
126127  2  0
126132  1  0
128129  1  0
128130  1  0
128131  1  0
132133  1  0
132134  1  0
134135  1  1
134136  1  0
134138  1  0
136137  2  0
136143  1  0
138139  1  0
138140  1  0
138141  1  0
141142  1  0
143144  1  0
143145  1  0
145146  1  1
145147  1  0
145149  1  0
147148  2  0
149150  1  0
149151  1  0
149152  1  0
152153  1  0
152154  1  0
152158  1  0
154155  1  0
154156  1  0
154157  1  0
158159  1  0
158160  1  0
158161  1  0
162163  1  0
162164  1  0
164165  1  6
164166  1  0
164168  1  0
166167  2  0
166184  1  0
168169  1  0
168170  1  0
168171  1  0
171172  1  0
171173  1  0
171174  1  0
174175  1  0
174176  1  0
174177  1  0
177178  1  0
177179  1  0
177180  1  0
180181  1  0
180182  1  0
180183  1  0
184185  1  0
184186  1  0
186187  1  6
186188  1  0
186190  1  0
188189  2  0
190191  1  0
190192  1  0
190193  1  0
193194  2  0
193196  1  0
194195  1  0
194198  1  0
196197  1  0
196200  2  0
198199  1  0
198202  2  0
200201  1  0
200202  1  0
202203  1  0
203204  1  0
205206  1  0
205207  1  0
207208  1  6
207209  1  0
207211  1  0
209210  2  0
211212  1  0
211213  1  0
211214  1  0
214215  1  0
214216  1  0
214217  1  0
217218  1  0
217219  1  0
217220  1  0
220221  1  0
220222  1  0
222223  2  0
222226  1  0
223224  1  0
223225  1  0
226227  1  0
226228  1  0
229230  1  0
229231  1  0
231232  1  1
231233  1  0
231235  1  0
233234  2  0
235236  1  0
235237  1  0
235238  1  0
238239  2  0
238241  1  0
239240  1  0
239243  1  0
241242  1  0
241245  2  0
243244  1  0
243247  2  0
245246  1  0
245247  1  0
247248  1  0
248249  1  0
M  RAD  8   1   2   5   2  13   2  39   2  55   2  59   2  71   2  75   2
M  RAD  8  90   2  94   2 106   2 110   2 122   2 147   2 162   2 188   2
M  CHG  2 180   1 223   1
M  RAD  4 205   2 209   2 229   2 233   2
M  END
$$$$

     RDKit          3D

251245  0  0  0  0  0  0  0  0999 V2000
    8.2390   15.7430  -10.2460 N   0  0  0  0  0  2  0  0  0  0  0  0
    8.4060   14.8450   -9.7480 H   0  0  0  0  0  0  0  0  0  0  0  0
    7.1270   16.5820   -9.8330 C   0  0  2  0  0  0  0  0  0  0  0  0
    6.5240   16.7530  -10.7240 H   0  0  0  0  0  0  0  0  0  0  0  0
    7.5010   17.9630   -9.3590 C   0  0  0  0  0  3  0  0  0  0  0  0
    8.3130   18.1090   -8.4540 O   0  0  0  0  0  0  0  0  0  0  0  0
    6.3630   15.8620   -8.7680 C   0  0  0  0  0  0  0  0  0  0  0  0
    7.0440   15.5910   -7.9610 H   0  0  0  0  0  0  0  0  0  0  0  0
    5.5850   16.5200   -8.3800 H   0  0  0  0  0  0  0  0  0  0  0  0
    5.7360   14.6350   -9.3040 C   0  0  0  0  0  0  0  0  0  0  0  0
    4.8520   14.7920  -10.1880 O   0  0  0  0  0  0  0  0  0  0  0  0
    6.1520   13.5130   -8.8840 O   0  0  0  0  0  0  0  0  0  0  0  0
    1.6580   16.8130  -11.9920 N   0  0  0  0  0  2  0  0  0  0  0  0
    2.3630   16.6600  -11.2430 H   0  0  0  0  0  0  0  0  0  0  0  0
    0.5750   15.8710  -12.1280 C   0  0  2  0  0  0  0  0  0  0  0  0
    0.1290   15.9910  -13.1150 H   0  0  0  0  0  0  0  0  0  0  0  0
   -0.5220   16.1130  -11.1130 C   0  0  0  0  0  0  0  0  0  0  0  0
   -0.2990   16.7340  -10.0760 O   0  0  0  0  0  0  0  0  0  0  0  0
    1.1300   14.4960  -11.9520 C   0  0  0  0  0  0  0  0  0  0  0  0
    0.3140   13.7740  -11.9180 H   0  0  0  0  0  0  0  0  0  0  0  0
    1.6970   14.4460  -11.0220 H   0  0  0  0  0  0  0  0  0  0  0  0
    1.9940   14.1960  -13.0610 O   0  0  0  0  0  0  0  0  0  0  0  0
    2.3660   13.2850  -12.9510 H   0  0  0  0  0  0  0  0  0  0  0  0
   -1.7070   15.5990  -11.3820 N   0  0  0  0  0  0  0  0  0  0  0  0
   -1.8300   15.0390  -12.2500 H   0  0  0  0  0  0  0  0  0  0  0  0
   -2.8500   15.7940  -10.4960 C   0  0  2  0  0  0  0  0  0  0  0  0
   -2.4940   15.6940   -9.4710 H   0  0  0  0  0  0  0  0  0  0  0  0
   -3.9360   14.7420  -10.7100 C   0  0  0  0  0  0  0  0  0  0  0  0
   -4.1170   14.2150  -11.8220 O   0  0  0  0  0  0  0  0  0  0  0  0
   -3.4310   17.1680  -10.7260 C   0  0  0  0  0  0  0  0  0  0  0  0
   -3.6970   17.2780  -11.7770 H   0  0  0  0  0  0  0  0  0  0  0  0
   -2.6920   17.9230  -10.4590 H   0  0  0  0  0  0  0  0  0  0  0  0
   -4.5930   17.3400   -9.9250 O   0  0  0  0  0  0  0  0  0  0  0  0
   -4.9690   18.2430  -10.0800 H   0  0  0  0  0  0  0  0  0  0  0  0
   -4.6520   14.4140   -9.6350 N   0  0  0  0  0  0  0  0  0  0  0  0
   -4.3590   14.7920   -8.7110 H   0  0  0  0  0  0  0  0  0  0  0  0
   -5.8320   13.5460   -9.6910 C   0  0  2  0  0  0  0  0  0  0  0  0
   -5.6450   12.7780  -10.4420 H   0  0  0  0  0  0  0  0  0  0  0  0
   -7.0770   14.3290  -10.1220 C   0  0  0  0  0  3  0  0  0  0  0  0
   -8.0250   13.7390  -10.5890 O   0  0  0  0  0  0  0  0  0  0  0  0
   -6.0610   12.8570   -8.3570 C   0  0  0  0  0  0  0  0  0  0  0  0
   -5.9730   13.6020   -7.5670 H   0  0  0  0  0  0  0  0  0  0  0  0
   -7.0700   12.4440   -8.3540 H   0  0  0  0  0  0  0  0  0  0  0  0
   -5.0730   11.7210   -8.0610 C   0  0  0  0  0  0  0  0  0  0  0  0
   -4.0720   11.8810   -7.1020 C   0  0  0  0  0  0  0  0  0  0  0  0
   -3.9860   12.8270   -6.5670 H   0  0  0  0  0  0  0  0  0  0  0  0
   -5.1740   10.4980   -8.7080 C   0  0  0  0  0  0  0  0  0  0  0  0
   -5.9560   10.3530   -9.4530 H   0  0  0  0  0  0  0  0  0  0  0  0
   -3.1820   10.8480   -6.8190 C   0  0  0  0  0  0  0  0  0  0  0  0
   -2.4060   10.9870   -6.0660 H   0  0  0  0  0  0  0  0  0  0  0  0
   -4.2920    9.4420   -8.4250 C   0  0  0  0  0  0  0  0  0  0  0  0
   -4.4060    8.4830   -8.9310 H   0  0  0  0  0  0  0  0  0  0  0  0
   -3.2860    9.6220   -7.5080 C   0  0  0  0  0  0  0  0  0  0  0  0
   -2.5720    8.8220   -7.3140 H   0  0  0  0  0  0  0  0  0  0  0  0
   -3.3140    5.0230  -13.0570 N   0  0  0  0  0  2  0  0  0  0  0  0
   -4.1400    5.6150  -12.8370 H   0  0  0  0  0  0  0  0  0  0  0  0
   -2.5170    4.4610  -11.9940 C   0  0  2  0  0  0  0  0  0  0  0  0
   -1.7250    3.8470  -12.4230 H   0  0  0  0  0  0  0  0  0  0  0  0
   -3.4380    3.6400  -11.1070 C   0  0  0  0  0  3  0  0  0  0  0  0
   -4.4710    4.1900  -10.6370 O   0  0  0  0  0  0  0  0  0  0  0  0
   -1.8540    5.5840  -11.1350 C   0  0  0  0  0  0  0  0  0  0  0  0
   -2.6490    6.2450  -10.7900 H   0  0  0  0  0  0  0  0  0  0  0  0
   -1.1450    4.9970   -9.9330 C   0  0  0  0  0  0  0  0  0  0  0  0
   -1.8650    4.4610   -9.3150 H   0  0  0  0  0  0  0  0  0  0  0  0
   -0.3700    4.3090  -10.2700 H   0  0  0  0  0  0  0  0  0  0  0  0
   -0.6920    5.8000   -9.3520 H   0  0  0  0  0  0  0  0  0  0  0  0
   -0.8790    6.3820  -11.9530 C   0  0  0  0  0  0  0  0  0  0  0  0
   -0.0980    5.7220  -12.3300 H   0  0  0  0  0  0  0  0  0  0  0  0
   -1.4020    6.8440  -12.7900 H   0  0  0  0  0  0  0  0  0  0  0  0
   -0.4320    7.1570  -11.3300 H   0  0  0  0  0  0  0  0  0  0  0  0
   -4.5210    2.0210   -7.7850 N   0  0  0  0  0  2  0  0  0  0  0  0
   -5.4600    2.1270   -8.2190 H   0  0  0  0  0  0  0  0  0  0  0  0
   -4.3760    2.2860   -6.3400 C   0  0  2  0  0  0  0  0  0  0  0  0
   -3.3700    1.9630   -6.0710 H   0  0  0  0  0  0  0  0  0  0  0  0
   -5.3740    1.4700   -5.5200 C   0  0  0  0  0  3  0  0  0  0  0  0
   -6.6090    1.7400   -5.5300 O   0  0  0  0  0  0  0  0  0  0  0  0
   -4.4620    3.8040   -5.9870 C   0  0  2  0  0  0  0  0  0  0  0  0
   -5.4400    4.1780   -6.2900 H   0  0  0  0  0  0  0  0  0  0  0  0
   -3.3750    4.5860   -6.7450 C   0  0  0  0  0  0  0  0  0  0  0  0
   -2.4260    4.4330   -6.2310 H   0  0  0  0  0  0  0  0  0  0  0  0
   -3.3090    4.1820   -7.7550 H   0  0  0  0  0  0  0  0  0  0  0  0
   -4.3050    4.0130   -4.4580 C   0  0  0  0  0  0  0  0  0  0  0  0
   -5.1000    3.4810   -3.9360 H   0  0  0  0  0  0  0  0  0  0  0  0
   -3.3370    3.6280   -4.1370 H   0  0  0  0  0  0  0  0  0  0  0  0
   -4.3670    5.0770   -4.2300 H   0  0  0  0  0  0  0  0  0  0  0  0
   -3.6210    6.0930   -6.8510 C   0  0  0  0  0  0  0  0  0  0  0  0
   -4.5590    6.2710   -7.3760 H   0  0  0  0  0  0  0  0  0  0  0  0
   -3.6760    6.5220   -5.8510 H   0  0  0  0  0  0  0  0  0  0  0  0
   -2.8020    6.5560   -7.4010 H   0  0  0  0  0  0  0  0  0  0  0  0
   -7.1030    4.9550  -11.2140 N   0  0  0  0  0  2  0  0  0  0  0  0
   -6.1220    4.6450  -11.0650 H   0  0  0  0  0  0  0  0  0  0  0  0
   -7.3690    6.3930  -11.2260 C   0  0  2  0  0  0  0  0  0  0  0  0
   -8.4260    6.5500  -11.4390 H   0  0  0  0  0  0  0  0  0  0  0  0
   -6.5510    7.1110  -12.3230 C   0  0  0  0  0  3  0  0  0  0  0  0
   -5.3670    6.8340  -12.4820 O   0  0  0  0  0  0  0  0  0  0  0  0
   -6.9990    6.9690   -9.8590 C   0  0  0  0  0  0  0  0  0  0  0  0
   -5.9460    6.7590   -9.6690 H   0  0  0  0  0  0  0  0  0  0  0  0
   -7.1550    8.0480   -9.8840 H   0  0  0  0  0  0  0  0  0  0  0  0
   -7.8100    6.3970   -8.7320 C   0  0  0  0  0  0  0  0  0  0  0  0
   -9.1120    6.7880   -8.4820 N   0  0  0  0  0  0  0  0  0  0  0  0
   -7.5200    5.4300   -7.8250 C   0  0  0  0  0  0  0  0  0  0  0  0
   -6.5730    4.9000   -7.7210 H   0  0  0  0  0  0  0  0  0  0  0  0
   -9.5840    6.0790   -7.4730 C   0  0  0  0  0  0  0  0  0  0  0  0
  -10.5840    6.1660   -7.0470 H   0  0  0  0  0  0  0  0  0  0  0  0
   -8.6430    5.2470   -7.0660 N   0  0  0  0  0  0  0  0  0  0  0  0
   -4.3430    9.9870  -13.8600 N   0  0  0  0  0  2  0  0  0  0  0  0
   -3.9430    9.2670  -14.4950 H   0  0  0  0  0  0  0  0  0  0  0  0
   -3.4660   11.0950  -13.4060 C   0  0  2  0  0  0  0  0  0  0  0  0
   -3.9980   11.6020  -12.6010 H   0  0  0  0  0  0  0  0  0  0  0  0
   -3.1980   12.0700  -14.5610 C   0  0  0  0  0  3  0  0  0  0  0  0
   -2.6940   11.6660  -15.6100 O   0  0  0  0  0  0  0  0  0  0  0  0
   -2.1230   10.5980  -12.8370 C   0  0  0  0  0  0  0  0  0  0  0  0
   -1.6160   10.0380  -13.6230 H   0  0  0  0  0  0  0  0  0  0  0  0
   -1.2160   11.7770  -12.4230 C   0  0  0  0  0  0  0  0  0  0  0  0
   -1.0140   12.4010  -13.2930 H   0  0  0  0  0  0  0  0  0  0  0  0
   -1.7190   12.3690  -11.6580 H   0  0  0  0  0  0  0  0  0  0  0  0
   -0.2780   11.3900  -12.0260 H   0  0  0  0  0  0  0  0  0  0  0  0
   -2.3600    9.6900  -11.6480 C   0  0  0  0  0  0  0  0  0  0  0  0
   -2.8940   10.2400  -10.8730 H   0  0  0  0  0  0  0  0  0  0  0  0
   -2.9540    8.8310  -11.9610 H   0  0  0  0  0  0  0  0  0  0  0  0
   -1.4020    9.3470  -11.2570 H   0  0  0  0  0  0  0  0  0  0  0  0
   10.6540   11.3050   -5.5760 N   0  0  0  0  0  2  0  0  0  0  0  0
   10.3920   12.2850   -5.8030 H   0  0  0  0  0  0  0  0  0  0  0  0
   10.0940   10.6720   -4.3490 C   0  0  2  0  0  0  0  0  0  0  0  0
   10.8680    9.9920   -3.9930 H   0  0  0  0  0  0  0  0  0  0  0  0
    8.8430    9.8410   -4.6350 C   0  0  0  0  0  0  0  0  0  0  0  0
    8.3760    9.1070   -3.7350 O   0  0  0  0  0  0  0  0  0  0  0  0
    9.8210   11.6790   -3.2540 C   0  0  0  0  0  0  0  0  0  0  0  0
   10.7510   12.1790   -2.9810 H   0  0  0  0  0  0  0  0  0  0  0  0
    9.1020   12.4160   -3.6110 H   0  0  0  0  0  0  0  0  0  0  0  0
    9.4140   11.1650   -2.3830 H   0  0  0  0  0  0  0  0  0  0  0  0
    8.3280    9.9240   -5.8760 N   0  0  0  0  0  0  0  0  0  0  0  0
    8.8050   10.5390   -6.5650 H   0  0  0  0  0  0  0  0  0  0  0  0
    7.1420    9.2010   -6.3060 C   0  0  2  0  0  0  0  0  0  0  0  0
    6.4000    9.3360   -5.5190 H   0  0  0  0  0  0  0  0  0  0  0  0
    7.4250    7.7530   -6.4980 C   0  0  0  0  0  0  0  0  0  0  0  0
    8.5700    7.2700   -6.4620 O   0  0  0  0  0  0  0  0  0  0  0  0
    6.6180    9.7450   -7.6390 C   0  0  0  0  0  0  0  0  0  0  0  0
    5.6190    9.3460   -7.8150 H   0  0  0  0  0  0  0  0  0  0  0  0
    7.2840    9.4210   -8.4390 H   0  0  0  0  0  0  0  0  0  0  0  0
    6.5530   11.1910   -7.6390 O   0  0  0  0  0  0  0  0  0  0  0  0
    6.2110   11.5050   -8.5140 H   0  0  0  0  0  0  0  0  0  0  0  0
    6.3550    7.0580   -6.8100 N   0  0  0  0  0  0  0  0  0  0  0  0
    5.4610    7.5640   -6.9720 H   0  0  0  0  0  0  0  0  0  0  0  0
    6.3700    5.6400   -6.9350 C   0  0  2  0  0  0  0  0  0  0  0  0
    7.1620    5.1570   -6.3640 H   0  0  0  0  0  0  0  0  0  0  0  0
    6.5790    5.3360   -8.4090 C   0  0  0  0  0  3  0  0  0  0  0  0
    6.0940    6.0730   -9.2600 O   0  0  0  0  0  0  0  0  0  0  0  0
    5.0220    5.1190   -6.4090 C   0  0  0  0  0  0  0  0  0  0  0  0
    4.2350    5.7010   -6.8870 H   0  0  0  0  0  0  0  0  0  0  0  0
    4.9330    4.0750   -6.7090 H   0  0  0  0  0  0  0  0  0  0  0  0
    4.7900    5.1880   -4.8740 C   0  0  0  0  0  0  0  0  0  0  0  0
    5.0100    6.2120   -4.5710 H   0  0  0  0  0  0  0  0  0  0  0  0
    3.3110    4.7880   -4.5700 C   0  0  0  0  0  0  0  0  0  0  0  0
    2.6380    5.4790   -5.0770 H   0  0  0  0  0  0  0  0  0  0  0  0
    3.1300    3.7740   -4.9260 H   0  0  0  0  0  0  0  0  0  0  0  0
    3.1370    4.8330   -3.4950 H   0  0  0  0  0  0  0  0  0  0  0  0
    5.7270    4.2640   -4.0560 C   0  0  0  0  0  0  0  0  0  0  0  0
    5.5710    3.2290   -4.3610 H   0  0  0  0  0  0  0  0  0  0  0  0
    6.7640    4.5460   -4.2400 H   0  0  0  0  0  0  0  0  0  0  0  0
    5.5030    4.3690   -2.9940 H   0  0  0  0  0  0  0  0  0  0  0  0
    5.3050    3.2970  -10.3550 N   0  0  0  0  0  2  0  0  0  0  0  0
    5.3190    3.2100   -9.3190 H   0  0  0  0  0  0  0  0  0  0  0  0
    4.1120    2.9140  -11.0930 C   0  0  2  0  0  0  0  0  0  0  0  0
    4.3770    2.2010  -11.8730 H   0  0  0  0  0  0  0  0  0  0  0  0
    3.5250    4.1710  -11.7290 C   0  0  0  0  0  0  0  0  0  0  0  0
    2.8290    4.0740  -12.7370 O   0  0  0  0  0  0  0  0  0  0  0  0
    3.0890    2.1810  -10.2000 C   0  0  0  0  0  0  0  0  0  0  0  0
    2.2390    1.8870  -10.8160 H   0  0  0  0  0  0  0  0  0  0  0  0
    3.5630    1.2900   -9.7890 H   0  0  0  0  0  0  0  0  0  0  0  0
    2.5850    3.0260   -9.0590 C   0  0  0  0  0  0  0  0  0  0  0  0
    3.2850    2.9380   -8.2280 H   0  0  0  0  0  0  0  0  0  0  0  0
    2.5440    4.0640   -9.3890 H   0  0  0  0  0  0  0  0  0  0  0  0
    1.2080    2.6210   -8.5730 C   0  0  0  0  0  0  0  0  0  0  0  0
    0.7530    3.4710   -8.0650 H   0  0  0  0  0  0  0  0  0  0  0  0
    0.6000    2.3470   -9.4350 H   0  0  0  0  0  0  0  0  0  0  0  0
    1.2480    1.4500   -7.6160 C   0  0  0  0  0  0  0  0  0  0  0  0
    2.1300    1.5540   -6.9850 H   0  0  0  0  0  0  0  0  0  0  0  0
    1.3270    0.5330   -8.2000 H   0  0  0  0  0  0  0  0  0  0  0  0
    0.0220    1.3380   -6.7120 N   0  0  0  0  0  4  0  0  0  0  0  0
   -0.0630    2.2000   -6.1370 H   0  0  0  0  0  0  0  0  0  0  0  0
   -0.8300    1.2250   -7.2980 H   0  0  0  0  0  0  0  0  0  0  0  0
    0.1270    0.5130   -6.0880 H   0  0  0  0  0  0  0  0  0  0  0  0
    3.8150    5.3320  -11.1570 N   0  0  0  0  0  0  0  0  0  0  0  0
    4.3440    5.3460  -10.2620 H   0  0  0  0  0  0  0  0  0  0  0  0
    3.4060    6.5700  -11.7600 C   0  0  2  0  0  0  0  0  0  0  0  0
    2.6010    6.3500  -12.4610 H   0  0  0  0  0  0  0  0  0  0  0  0
    4.5830    7.2000  -12.5340 C   0  0  0  0  0  3  0  0  0  0  0  0
    4.3900    7.6850  -13.6440 O   0  0  0  0  0  0  0  0  0  0  0  0
    2.8330    7.5740  -10.6990 C   0  0  0  0  0  0  0  0  0  0  0  0
    1.7520    7.4410  -10.6510 H   0  0  0  0  0  0  0  0  0  0  0  0
    3.2710    7.3350   -9.7300 H   0  0  0  0  0  0  0  0  0  0  0  0
    3.1220    9.0400  -11.0060 C   0  0  0  0  0  0  0  0  0  0  0  0
    2.4190    9.6990  -11.9770 C   0  0  0  0  0  0  0  0  0  0  0  0
    1.6340    9.1740  -12.5200 H   0  0  0  0  0  0  0  0  0  0  0  0
    4.1580    9.7400  -10.3510 C   0  0  0  0  0  0  0  0  0  0  0  0
    4.7460    9.2230   -9.5930 H   0  0  0  0  0  0  0  0  0  0  0  0
    2.7000   11.0760  -12.2930 C   0  0  0  0  0  0  0  0  0  0  0  0
    2.1060   11.5870  -13.0510 H   0  0  0  0  0  0  0  0  0  0  0  0
    4.4620   11.1120  -10.6520 C   0  0  0  0  0  0  0  0  0  0  0  0
    5.2550   11.6380  -10.1200 H   0  0  0  0  0  0  0  0  0  0  0  0
    3.7150   11.7570  -11.6450 C   0  0  0  0  0  0  0  0  0  0  0  0
    3.9630   13.0750  -12.0290 O   0  0  0  0  0  0  0  0  0  0  0  0
    3.3260   13.3360  -12.7410 H   0  0  0  0  0  0  0  0  0  0  0  0
   10.9780    6.3050   -4.9480 N   0  0  0  0  0  2  0  0  0  0  0  0
   10.1880    5.9880   -5.5450 H   0  0  0  0  0  0  0  0  0  0  0  0
   10.7200    6.5580   -3.5270 C   0  0  2  0  0  0  0  0  0  0  0  0
   10.9690    7.6020   -3.3390 H   0  0  0  0  0  0  0  0  0  0  0  0
   11.6250    5.7190   -2.6400 C   0  0  0  0  0  3  0  0  0  0  0  0
   12.2670    6.2920   -1.7970 O   0  0  0  0  0  0  0  0  0  0  0  0
    9.2040    6.4100   -3.1540 C   0  0  0  0  0  0  0  0  0  0  0  0
    8.6640    7.2090   -3.6620 H   0  0  0  0  0  0  0  0  0  0  0  0
    8.8680    5.4460   -3.5360 H   0  0  0  0  0  0  0  0  0  0  0  0
    8.8060    6.4750   -1.6050 C   0  0  0  0  0  0  0  0  0  0  0  0
    9.0730    5.5270   -1.1380 H   0  0  0  0  0  0  0  0  0  0  0  0
    9.3690    7.2810   -1.1350 H   0  0  0  0  0  0  0  0  0  0  0  0
    7.2710    6.7340   -1.3710 C   0  0  0  0  0  0  0  0  0  0  0  0
    6.9860    6.4380   -0.3620 H   0  0  0  0  0  0  0  0  0  0  0  0
    6.6770    6.1740   -2.0940 H   0  0  0  0  0  0  0  0  0  0  0  0
    7.0740    8.1750   -1.5550 N   0  0  0  0  0  0  0  0  0  0  0  0
    7.9010    8.7810   -1.3810 H   0  0  0  0  0  0  0  0  0  0  0  0
    5.9530    8.7950   -1.9200 C   0  0  0  0  0  0  0  0  0  0  0  0
    4.8300    8.1290   -2.1550 N   0  0  0  0  0  4  0  0  0  0  0  0
    4.8090    7.0940   -2.0560 H   0  0  0  0  0  0  0  0  0  0  0  0
    3.9710    8.6420   -2.4390 H   0  0  0  0  0  0  0  0  0  0  0  0
    5.9750   10.1110   -2.0680 N   0  0  0  0  0  0  0  0  0  0  0  0
    6.8550   10.6390   -1.9000 H   0  0  0  0  0  0  0  0  0  0  0  0
    5.1120   10.6170   -2.3520 H   0  0  0  0  0  0  0  0  0  0  0  0
   11.6800   13.6970    2.1500 N   0  0  0  0  0  2  0  0  0  0  0  0
   11.0060   14.3750    1.7400 H   0  0  0  0  0  0  0  0  0  0  0  0
   12.3750   12.7460    1.2760 C   0  0  2  0  0  0  0  0  0  0  0  0
   12.5890   11.8420    1.8460 H   0  0  0  0  0  0  0  0  0  0  0  0
   13.6730   13.4000    0.7880 C   0  0  0  0  0  3  0  0  0  0  0  0
   13.6690   14.3550    0.0170 O   0  0  0  0  0  0  0  0  0  0  0  0
   11.5200   12.3200    0.0890 C   0  0  0  0  0  0  0  0  0  0  0  0
   11.3570   13.1990   -0.5350 H   0  0  0  0  0  0  0  0  0  0  0  0
   12.0810   11.5750   -0.4740 H   0  0  0  0  0  0  0  0  0  0  0  0
   10.1640   11.7270    0.4160 C   0  0  0  0  0  0  0  0  0  0  0  0
   10.0310   10.3500    0.7370 C   0  0  0  0  0  0  0  0  0  0  0  0
   10.9170    9.7150    0.7680 H   0  0  0  0  0  0  0  0  0  0  0  0
    9.0060   12.5450    0.3790 C   0  0  0  0  0  0  0  0  0  0  0  0
    9.1020   13.6000    0.1210 H   0  0  0  0  0  0  0  0  0  0  0  0
    8.7740    9.8000    1.0140 C   0  0  0  0  0  0  0  0  0  0  0  0
    8.6750    8.7420    1.2580 H   0  0  0  0  0  0  0  0  0  0  0  0
    7.7410   12.0170    0.6690 C   0  0  0  0  0  0  0  0  0  0  0  0
    6.8570   12.6550    0.6610 H   0  0  0  0  0  0  0  0  0  0  0  0
    7.6340   10.6360    0.9730 C   0  0  0  0  0  0  0  0  0  0  0  0
    6.3730   10.1120    1.2340 O   0  0  0  0  0  0  0  0  0  0  0  0
    6.4530    9.1450    1.4290 H   0  0  0  0  0  0  0  0  0  0  0  0
    6.8140   13.4770   -8.2220 H   0  0  0  0  0  0  0  0  0  0  0  0
   -8.7350    4.5970   -6.3320 H   0  0  0  0  0  0  0  0  0  0  0  0
  1  2  1  0
  1  3  1  0
  3  4  1  6
  3  5  1  0
  3  7  1  0
  5  6  2  0
  7  8  1  0
  7  9  1  0
  7 10  1  0
 10 11  2  0
 10 12  1  0
 12250  1  0
 13 14  1  0
 13 15  1  0
 15 16  1  6
 15 17  1  0
 15 19  1  0
 17 18  2  0
 17 24  1  0
 19 20  1  0
 19 21  1  0
 19 22  1  0
 22 23  1  0
 24 25  1  0
 24 26  1  0
 26 27  1  1
 26 28  1  0
 26 30  1  0
 28 29  2  0
 28 35  1  0
 30 31  1  0
 30 32  1  0
 30 33  1  0
 33 34  1  0
 35 36  1  0
 35 37  1  0
 37 38  1  6
 37 39  1  0
 37 41  1  0
 39 40  2  0
 41 42  1  0
 41 43  1  0
 41 44  1  0
 44 45  2  0
 44 47  1  0
 45 46  1  0
 45 49  1  0
 47 48  1  0
 47 51  2  0
 49 50  1  0
 49 53  2  0
 51 52  1  0
 51 53  1  0
 53 54  1  0
 55 56  1  0
 55 57  1  0
 57 58  1  6
 57 59  1  0
 57 61  1  0
 59 60  2  0
 61 62  1  0
 61 63  1  0
 61 67  1  0
 63 64  1  0
 63 65  1  0
 63 66  1  0
 67 68  1  0
 67 69  1  0
 67 70  1  0
 71 72  1  0
 71 73  1  0
 73 74  1  1
 73 75  1  0
 73 77  1  0
 75 76  2  0
 77 78  1  6
 77 79  1  0
 77 82  1  0
 79 80  1  0
 79 81  1  0
 79 86  1  0
 82 83  1  0
 82 84  1  0
 82 85  1  0
 86 87  1  0
 86 88  1  0
 86 89  1  0
 90 91  1  0
 90 92  1  0
 92 93  1  6
 92 94  1  0
 92 96  1  0
 94 95  2  0
 96 97  1  0
 96 98  1  0
 96 99  1  0
 99100  1  0
 99101  2  0
100103  2  0
101102  1  0
101105  1  0
103104  1  0
103105  1  0
105251  1  0
106107  1  0
106108  1  0
108109  1  1
108110  1  0
108112  1  0
110111  2  0
112113  1  0
112114  1  0
112118  1  0
114115  1  0
114116  1  0
114117  1  0
118119  1  0
118120  1  0
118121  1  0
122123  1  0
122124  1  0
124125  1  1
124126  1  0
124128  1  0
126127  2  0
126132  1  0
128129  1  0
128130  1  0
128131  1  0
132133  1  0
132134  1  0
134135  1  1
134136  1  0
134138  1  0
136137  2  0
136143  1  0
138139  1  0
138140  1  0
138141  1  0
141142  1  0
143144  1  0
143145  1  0
145146  1  1
145147  1  0
145149  1  0
147148  2  0
149150  1  0
149151  1  0
149152  1  0
152153  1  0
152154  1  0
152158  1  0
154155  1  0
154156  1  0
154157  1  0
158159  1  0
158160  1  0
158161  1  0
162163  1  0
162164  1  0
164165  1  6
164166  1  0
164168  1  0
166167  2  0
166184  1  0
168169  1  0
168170  1  0
168171  1  0
171172  1  0
171173  1  0
171174  1  0
174175  1  0
174176  1  0
174177  1  0
177178  1  0
177179  1  0
177180  1  0
180181  1  0
180182  1  0
180183  1  0
184185  1  0
184186  1  0
186187  1  6
186188  1  0
186190  1  0
188189  2  0
190191  1  0
190192  1  0
190193  1  0
193194  2  0
193196  1  0
194195  1  0
194198  1  0
196197  1  0
196200  2  0
198199  1  0
198202  2  0
200201  1  0
200202  1  0
202203  1  0
203204  1  0
205206  1  0
205207  1  0
207208  1  6
207209  1  0
207211  1  0
209210  2  0
211212  1  0
211213  1  0
211214  1  0
214215  1  0
214216  1  0
214217  1  0
217218  1  0
217219  1  0
217220  1  0
220221  1  0
220222  1  0
222223  2  0
222226  1  0
223224  1  0
223225  1  0
226227  1  0
226228  1  0
229230  1  0
229231  1  0
231232  1  1
231233  1  0
231235  1  0
233234  2  0
235236  1  0
235237  1  0
235238  1  0
238239  2  0
238241  1  0
239240  1  0
239243  1  0
241242  1  0
241245  2  0
243244  1  0
243247  2  0
245246  1  0
245247  1  0
247248  1  0
248249  1  0
M  RAD  8   1   2   5   2  13   2  39   2  55   2  59   2  71   2  75   2
M  RAD  8  90   2  94   2 106   2 110   2 122   2 147   2 162   2 188   2
M  CHG  2 180   1 223   1
M  RAD  4 205   2 209   2 229   2 233   2
M  END
$$$$

     RDKit          3D

251245  0  0  0  0  0  0  0  0999 V2000
    8.2390   15.7430  -10.2460 N   0  0  0  0  0  2  0  0  0  0  0  0
    8.4060   14.8450   -9.7480 H   0  0  0  0  0  0  0  0  0  0  0  0
    7.1270   16.5820   -9.8330 C   0  0  2  0  0  0  0  0  0  0  0  0
    6.5240   16.7530  -10.7240 H   0  0  0  0  0  0  0  0  0  0  0  0
    7.5010   17.9630   -9.3590 C   0  0  0  0  0  3  0  0  0  0  0  0
    8.3130   18.1090   -8.4540 O   0  0  0  0  0  0  0  0  0  0  0  0
    6.3630   15.8620   -8.7680 C   0  0  0  0  0  0  0  0  0  0  0  0
    7.0440   15.5910   -7.9610 H   0  0  0  0  0  0  0  0  0  0  0  0
    5.5850   16.5200   -8.3800 H   0  0  0  0  0  0  0  0  0  0  0  0
    5.7360   14.6350   -9.3040 C   0  0  0  0  0  0  0  0  0  0  0  0
    4.8520   14.7920  -10.1880 O   0  0  0  0  0  0  0  0  0  0  0  0
    6.1520   13.5130   -8.8840 O   0  0  0  0  0  0  0  0  0  0  0  0
    1.6580   16.8130  -11.9920 N   0  0  0  0  0  2  0  0  0  0  0  0
    2.3630   16.6600  -11.2430 H   0  0  0  0  0  0  0  0  0  0  0  0
    0.5750   15.8710  -12.1280 C   0  0  2  0  0  0  0  0  0  0  0  0
    0.1290   15.9910  -13.1150 H   0  0  0  0  0  0  0  0  0  0  0  0
   -0.5220   16.1130  -11.1130 C   0  0  0  0  0  0  0  0  0  0  0  0
   -0.2990   16.7340  -10.0760 O   0  0  0  0  0  0  0  0  0  0  0  0
    1.1300   14.4960  -11.9520 C   0  0  0  0  0  0  0  0  0  0  0  0
    0.3140   13.7740  -11.9180 H   0  0  0  0  0  0  0  0  0  0  0  0
    1.6970   14.4460  -11.0220 H   0  0  0  0  0  0  0  0  0  0  0  0
    1.9940   14.1960  -13.0610 O   0  0  0  0  0  0  0  0  0  0  0  0
    2.3660   13.2850  -12.9510 H   0  0  0  0  0  0  0  0  0  0  0  0
   -1.7070   15.5990  -11.3820 N   0  0  0  0  0  0  0  0  0  0  0  0
   -1.8300   15.0390  -12.2500 H   0  0  0  0  0  0  0  0  0  0  0  0
   -2.8500   15.7940  -10.4960 C   0  0  2  0  0  0  0  0  0  0  0  0
   -2.4940   15.6940   -9.4710 H   0  0  0  0  0  0  0  0  0  0  0  0
   -3.9360   14.7420  -10.7100 C   0  0  0  0  0  0  0  0  0  0  0  0
   -4.1170   14.2150  -11.8220 O   0  0  0  0  0  0  0  0  0  0  0  0
   -3.4310   17.1680  -10.7260 C   0  0  0  0  0  0  0  0  0  0  0  0
   -3.6970   17.2780  -11.7770 H   0  0  0  0  0  0  0  0  0  0  0  0
   -2.6920   17.9230  -10.4590 H   0  0  0  0  0  0  0  0  0  0  0  0
   -4.5930   17.3400   -9.9250 O   0  0  0  0  0  0  0  0  0  0  0  0
   -4.9690   18.2430  -10.0800 H   0  0  0  0  0  0  0  0  0  0  0  0
   -4.6520   14.4140   -9.6350 N   0  0  0  0  0  0  0  0  0  0  0  0
   -4.3590   14.7920   -8.7110 H   0  0  0  0  0  0  0  0  0  0  0  0
   -5.8320   13.5460   -9.6910 C   0  0  2  0  0  0  0  0  0  0  0  0
   -5.6450   12.7780  -10.4420 H   0  0  0  0  0  0  0  0  0  0  0  0
   -7.0770   14.3290  -10.1220 C   0  0  0  0  0  3  0  0  0  0  0  0
   -8.0250   13.7390  -10.5890 O   0  0  0  0  0  0  0  0  0  0  0  0
   -6.0610   12.8570   -8.3570 C   0  0  0  0  0  0  0  0  0  0  0  0
   -5.9730   13.6020   -7.5670 H   0  0  0  0  0  0  0  0  0  0  0  0
   -7.0700   12.4440   -8.3540 H   0  0  0  0  0  0  0  0  0  0  0  0
   -5.0730   11.7210   -8.0610 C   0  0  0  0  0  0  0  0  0  0  0  0
   -4.0720   11.8810   -7.1020 C   0  0  0  0  0  0  0  0  0  0  0  0
   -3.9860   12.8270   -6.5670 H   0  0  0  0  0  0  0  0  0  0  0  0
   -5.1740   10.4980   -8.7080 C   0  0  0  0  0  0  0  0  0  0  0  0
   -5.9560   10.3530   -9.4530 H   0  0  0  0  0  0  0  0  0  0  0  0
   -3.1820   10.8480   -6.8190 C   0  0  0  0  0  0  0  0  0  0  0  0
   -2.4060   10.9870   -6.0660 H   0  0  0  0  0  0  0  0  0  0  0  0
   -4.2920    9.4420   -8.4250 C   0  0  0  0  0  0  0  0  0  0  0  0
   -4.4060    8.4830   -8.9310 H   0  0  0  0  0  0  0  0  0  0  0  0
   -3.2860    9.6220   -7.5080 C   0  0  0  0  0  0  0  0  0  0  0  0
   -2.5720    8.8220   -7.3140 H   0  0  0  0  0  0  0  0  0  0  0  0
   -3.3140    5.0230  -13.0570 N   0  0  0  0  0  2  0  0  0  0  0  0
   -4.1400    5.6150  -12.8370 H   0  0  0  0  0  0  0  0  0  0  0  0
   -2.5170    4.4610  -11.9940 C   0  0  2  0  0  0  0  0  0  0  0  0
   -1.7250    3.8470  -12.4230 H   0  0  0  0  0  0  0  0  0  0  0  0
   -3.4380    3.6400  -11.1070 C   0  0  0  0  0  3  0  0  0  0  0  0
   -4.4710    4.1900  -10.6370 O   0  0  0  0  0  0  0  0  0  0  0  0
   -1.8540    5.5840  -11.1350 C   0  0  0  0  0  0  0  0  0  0  0  0
   -2.6490    6.2450  -10.7900 H   0  0  0  0  0  0  0  0  0  0  0  0
   -1.1450    4.9970   -9.9330 C   0  0  0  0  0  0  0  0  0  0  0  0
   -1.8650    4.4610   -9.3150 H   0  0  0  0  0  0  0  0  0  0  0  0
   -0.3700    4.3090  -10.2700 H   0  0  0  0  0  0  0  0  0  0  0  0
   -0.6920    5.8000   -9.3520 H   0  0  0  0  0  0  0  0  0  0  0  0
   -0.8790    6.3820  -11.9530 C   0  0  0  0  0  0  0  0  0  0  0  0
   -0.0980    5.7220  -12.3300 H   0  0  0  0  0  0  0  0  0  0  0  0
   -1.4020    6.8440  -12.7900 H   0  0  0  0  0  0  0  0  0  0  0  0
   -0.4320    7.1570  -11.3300 H   0  0  0  0  0  0  0  0  0  0  0  0
   -4.5210    2.0210   -7.7850 N   0  0  0  0  0  2  0  0  0  0  0  0
   -5.4600    2.1270   -8.2190 H   0  0  0  0  0  0  0  0  0  0  0  0
   -4.3760    2.2860   -6.3400 C   0  0  2  0  0  0  0  0  0  0  0  0
   -3.3700    1.9630   -6.0710 H   0  0  0  0  0  0  0  0  0  0  0  0
   -5.3740    1.4700   -5.5200 C   0  0  0  0  0  3  0  0  0  0  0  0
   -6.6090    1.7400   -5.5300 O   0  0  0  0  0  0  0  0  0  0  0  0
   -4.4620    3.8040   -5.9870 C   0  0  2  0  0  0  0  0  0  0  0  0
   -5.4400    4.1780   -6.2900 H   0  0  0  0  0  0  0  0  0  0  0  0
   -3.3750    4.5860   -6.7450 C   0  0  0  0  0  0  0  0  0  0  0  0
   -2.4260    4.4330   -6.2310 H   0  0  0  0  0  0  0  0  0  0  0  0
   -3.3090    4.1820   -7.7550 H   0  0  0  0  0  0  0  0  0  0  0  0
   -4.3050    4.0130   -4.4580 C   0  0  0  0  0  0  0  0  0  0  0  0
   -5.1000    3.4810   -3.9360 H   0  0  0  0  0  0  0  0  0  0  0  0
   -3.3370    3.6280   -4.1370 H   0  0  0  0  0  0  0  0  0  0  0  0
   -4.3670    5.0770   -4.2300 H   0  0  0  0  0  0  0  0  0  0  0  0
   -3.6210    6.0930   -6.8510 C   0  0  0  0  0  0  0  0  0  0  0  0
   -4.5590    6.2710   -7.3760 H   0  0  0  0  0  0  0  0  0  0  0  0
   -3.6760    6.5220   -5.8510 H   0  0  0  0  0  0  0  0  0  0  0  0
   -2.8020    6.5560   -7.4010 H   0  0  0  0  0  0  0  0  0  0  0  0
   -7.1030    4.9550  -11.2140 N   0  0  0  0  0  2  0  0  0  0  0  0
   -6.1220    4.6450  -11.0650 H   0  0  0  0  0  0  0  0  0  0  0  0
   -7.3690    6.3930  -11.2260 C   0  0  2  0  0  0  0  0  0  0  0  0
   -8.4260    6.5500  -11.4390 H   0  0  0  0  0  0  0  0  0  0  0  0
   -6.5510    7.1110  -12.3230 C   0  0  0  0  0  3  0  0  0  0  0  0
   -5.3670    6.8340  -12.4820 O   0  0  0  0  0  0  0  0  0  0  0  0
   -6.9990    6.9690   -9.8590 C   0  0  0  0  0  0  0  0  0  0  0  0
   -5.9460    6.7590   -9.6690 H   0  0  0  0  0  0  0  0  0  0  0  0
   -7.1550    8.0480   -9.8840 H   0  0  0  0  0  0  0  0  0  0  0  0
   -7.8100    6.3970   -8.7320 C   0  0  0  0  0  0  0  0  0  0  0  0
   -9.1120    6.7880   -8.4820 N   0  0  0  0  0  0  0  0  0  0  0  0
   -7.5200    5.4300   -7.8250 C   0  0  0  0  0  0  0  0  0  0  0  0
   -6.5730    4.9000   -7.7210 H   0  0  0  0  0  0  0  0  0  0  0  0
   -9.5840    6.0790   -7.4730 C   0  0  0  0  0  0  0  0  0  0  0  0
  -10.5840    6.1660   -7.0470 H   0  0  0  0  0  0  0  0  0  0  0  0
   -8.6430    5.2470   -7.0660 N   0  0  0  0  0  0  0  0  0  0  0  0
   -4.3430    9.9870  -13.8600 N   0  0  0  0  0  2  0  0  0  0  0  0
   -3.9430    9.2670  -14.4950 H   0  0  0  0  0  0  0  0  0  0  0  0
   -3.4660   11.0950  -13.4060 C   0  0  2  0  0  0  0  0  0  0  0  0
   -3.9980   11.6020  -12.6010 H   0  0  0  0  0  0  0  0  0  0  0  0
   -3.1980   12.0700  -14.5610 C   0  0  0  0  0  3  0  0  0  0  0  0
   -2.6940   11.6660  -15.6100 O   0  0  0  0  0  0  0  0  0  0  0  0
   -2.1230   10.5980  -12.8370 C   0  0  0  0  0  0  0  0  0  0  0  0
   -1.6160   10.0380  -13.6230 H   0  0  0  0  0  0  0  0  0  0  0  0
   -1.2160   11.7770  -12.4230 C   0  0  0  0  0  0  0  0  0  0  0  0
   -1.0140   12.4010  -13.2930 H   0  0  0  0  0  0  0  0  0  0  0  0
   -1.7190   12.3690  -11.6580 H   0  0  0  0  0  0  0  0  0  0  0  0
   -0.2780   11.3900  -12.0260 H   0  0  0  0  0  0  0  0  0  0  0  0
   -2.3600    9.6900  -11.6480 C   0  0  0  0  0  0  0  0  0  0  0  0
   -2.8940   10.2400  -10.8730 H   0  0  0  0  0  0  0  0  0  0  0  0
   -2.9540    8.8310  -11.9610 H   0  0  0  0  0  0  0  0  0  0  0  0
   -1.4020    9.3470  -11.2570 H   0  0  0  0  0  0  0  0  0  0  0  0
   10.6540   11.3050   -5.5760 N   0  0  0  0  0  2  0  0  0  0  0  0
   10.3920   12.2850   -5.8030 H   0  0  0  0  0  0  0  0  0  0  0  0
   10.0940   10.6720   -4.3490 C   0  0  2  0  0  0  0  0  0  0  0  0
   10.8680    9.9920   -3.9930 H   0  0  0  0  0  0  0  0  0  0  0  0
    8.8430    9.8410   -4.6350 C   0  0  0  0  0  0  0  0  0  0  0  0
    8.3760    9.1070   -3.7350 O   0  0  0  0  0  0  0  0  0  0  0  0
    9.8210   11.6790   -3.2540 C   0  0  0  0  0  0  0  0  0  0  0  0
   10.7510   12.1790   -2.9810 H   0  0  0  0  0  0  0  0  0  0  0  0
    9.1020   12.4160   -3.6110 H   0  0  0  0  0  0  0  0  0  0  0  0
    9.4140   11.1650   -2.3830 H   0  0  0  0  0  0  0  0  0  0  0  0
    8.3280    9.9240   -5.8760 N   0  0  0  0  0  0  0  0  0  0  0  0
    8.8050   10.5390   -6.5650 H   0  0  0  0  0  0  0  0  0  0  0  0
    7.1420    9.2010   -6.3060 C   0  0  2  0  0  0  0  0  0  0  0  0
    6.4000    9.3360   -5.5190 H   0  0  0  0  0  0  0  0  0  0  0  0
    7.4250    7.7530   -6.4980 C   0  0  0  0  0  0  0  0  0  0  0  0
    8.5700    7.2700   -6.4620 O   0  0  0  0  0  0  0  0  0  0  0  0
    6.6180    9.7450   -7.6390 C   0  0  0  0  0  0  0  0  0  0  0  0
    5.6190    9.3460   -7.8150 H   0  0  0  0  0  0  0  0  0  0  0  0
    7.2840    9.4210   -8.4390 H   0  0  0  0  0  0  0  0  0  0  0  0
    6.5530   11.1910   -7.6390 O   0  0  0  0  0  0  0  0  0  0  0  0
    6.2110   11.5050   -8.5140 H   0  0  0  0  0  0  0  0  0  0  0  0
    6.3550    7.0580   -6.8100 N   0  0  0  0  0  0  0  0  0  0  0  0
    5.4610    7.5640   -6.9720 H   0  0  0  0  0  0  0  0  0  0  0  0
    6.3700    5.6400   -6.9350 C   0  0  2  0  0  0  0  0  0  0  0  0
    7.1620    5.1570   -6.3640 H   0  0  0  0  0  0  0  0  0  0  0  0
    6.5790    5.3360   -8.4090 C   0  0  0  0  0  3  0  0  0  0  0  0
    6.0940    6.0730   -9.2600 O   0  0  0  0  0  0  0  0  0  0  0  0
    5.0220    5.1190   -6.4090 C   0  0  0  0  0  0  0  0  0  0  0  0
    4.2350    5.7010   -6.8870 H   0  0  0  0  0  0  0  0  0  0  0  0
    4.9330    4.0750   -6.7090 H   0  0  0  0  0  0  0  0  0  0  0  0
    4.7900    5.1880   -4.8740 C   0  0  0  0  0  0  0  0  0  0  0  0
    5.0100    6.2120   -4.5710 H   0  0  0  0  0  0  0  0  0  0  0  0
    3.3110    4.7880   -4.5700 C   0  0  0  0  0  0  0  0  0  0  0  0
    2.6380    5.4790   -5.0770 H   0  0  0  0  0  0  0  0  0  0  0  0
    3.1300    3.7740   -4.9260 H   0  0  0  0  0  0  0  0  0  0  0  0
    3.1370    4.8330   -3.4950 H   0  0  0  0  0  0  0  0  0  0  0  0
    5.7270    4.2640   -4.0560 C   0  0  0  0  0  0  0  0  0  0  0  0
    5.5710    3.2290   -4.3610 H   0  0  0  0  0  0  0  0  0  0  0  0
    6.7640    4.5460   -4.2400 H   0  0  0  0  0  0  0  0  0  0  0  0
    5.5030    4.3690   -2.9940 H   0  0  0  0  0  0  0  0  0  0  0  0
    5.3050    3.2970  -10.3550 N   0  0  0  0  0  2  0  0  0  0  0  0
    5.3190    3.2100   -9.3190 H   0  0  0  0  0  0  0  0  0  0  0  0
    4.1120    2.9140  -11.0930 C   0  0  2  0  0  0  0  0  0  0  0  0
    4.3770    2.2010  -11.8730 H   0  0  0  0  0  0  0  0  0  0  0  0
    3.5250    4.1710  -11.7290 C   0  0  0  0  0  0  0  0  0  0  0  0
    2.8290    4.0740  -12.7370 O   0  0  0  0  0  0  0  0  0  0  0  0
    3.0890    2.1810  -10.2000 C   0  0  0  0  0  0  0  0  0  0  0  0
    2.2390    1.8870  -10.8160 H   0  0  0  0  0  0  0  0  0  0  0  0
    3.5630    1.2900   -9.7890 H   0  0  0  0  0  0  0  0  0  0  0  0
    2.5850    3.0260   -9.0590 C   0  0  0  0  0  0  0  0  0  0  0  0
    3.2850    2.9380   -8.2280 H   0  0  0  0  0  0  0  0  0  0  0  0
    2.5440    4.0640   -9.3890 H   0  0  0  0  0  0  0  0  0  0  0  0
    1.2080    2.6210   -8.5730 C   0  0  0  0  0  0  0  0  0  0  0  0
    0.7530    3.4710   -8.0650 H   0  0  0  0  0  0  0  0  0  0  0  0
    0.6000    2.3470   -9.4350 H   0  0  0  0  0  0  0  0  0  0  0  0
    1.2480    1.4500   -7.6160 C   0  0  0  0  0  0  0  0  0  0  0  0
    2.1300    1.5540   -6.9850 H   0  0  0  0  0  0  0  0  0  0  0  0
    1.3270    0.5330   -8.2000 H   0  0  0  0  0  0  0  0  0  0  0  0
    0.0220    1.3380   -6.7120 N   0  0  0  0  0  4  0  0  0  0  0  0
   -0.0630    2.2000   -6.1370 H   0  0  0  0  0  0  0  0  0  0  0  0
   -0.8300    1.2250   -7.2980 H   0  0  0  0  0  0  0  0  0  0  0  0
    0.1270    0.5130   -6.0880 H   0  0  0  0  0  0  0  0  0  0  0  0
    3.8150    5.3320  -11.1570 N   0  0  0  0  0  0  0  0  0  0  0  0
    4.3440    5.3460  -10.2620 H   0  0  0  0  0  0  0  0  0  0  0  0
    3.4060    6.5700  -11.7600 C   0  0  2  0  0  0  0  0  0  0  0  0
    2.6010    6.3500  -12.4610 H   0  0  0  0  0  0  0  0  0  0  0  0
    4.5830    7.2000  -12.5340 C   0  0  0  0  0  3  0  0  0  0  0  0
    4.3900    7.6850  -13.6440 O   0  0  0  0  0  0  0  0  0  0  0  0
    2.8330    7.5740  -10.6990 C   0  0  0  0  0  0  0  0  0  0  0  0
    1.7520    7.4410  -10.6510 H   0  0  0  0  0  0  0  0  0  0  0  0
    3.2710    7.3350   -9.7300 H   0  0  0  0  0  0  0  0  0  0  0  0
    3.1220    9.0400  -11.0060 C   0  0  0  0  0  0  0  0  0  0  0  0
    2.4190    9.6990  -11.9770 C   0  0  0  0  0  0  0  0  0  0  0  0
    1.6340    9.1740  -12.5200 H   0  0  0  0  0  0  0  0  0  0  0  0
    4.1580    9.7400  -10.3510 C   0  0  0  0  0  0  0  0  0  0  0  0
    4.7460    9.2230   -9.5930 H   0  0  0  0  0  0  0  0  0  0  0  0
    2.7000   11.0760  -12.2930 C   0  0  0  0  0  0  0  0  0  0  0  0
    2.1060   11.5870  -13.0510 H   0  0  0  0  0  0  0  0  0  0  0  0
    4.4620   11.1120  -10.6520 C   0  0  0  0  0  0  0  0  0  0  0  0
    5.2550   11.6380  -10.1200 H   0  0  0  0  0  0  0  0  0  0  0  0
    3.7150   11.7570  -11.6450 C   0  0  0  0  0  0  0  0  0  0  0  0
    3.9630   13.0750  -12.0290 O   0  0  0  0  0  0  0  0  0  0  0  0
    3.3260   13.3360  -12.7410 H   0  0  0  0  0  0  0  0  0  0  0  0
   10.9780    6.3050   -4.9480 N   0  0  0  0  0  2  0  0  0  0  0  0
   10.1880    5.9880   -5.5450 H   0  0  0  0  0  0  0  0  0  0  0  0
   10.7200    6.5580   -3.5270 C   0  0  2  0  0  0  0  0  0  0  0  0
   10.9690    7.6020   -3.3390 H   0  0  0  0  0  0  0  0  0  0  0  0
   11.6250    5.7190   -2.6400 C   0  0  0  0  0  3  0  0  0  0  0  0
   12.2670    6.2920   -1.7970 O   0  0  0  0  0  0  0  0  0  0  0  0
    9.2040    6.4100   -3.1540 C   0  0  0  0  0  0  0  0  0  0  0  0
    8.6640    7.2090   -3.6620 H   0  0  0  0  0  0  0  0  0  0  0  0
    8.8680    5.4460   -3.5360 H   0  0  0  0  0  0  0  0  0  0  0  0
    8.8060    6.4750   -1.6050 C   0  0  0  0  0  0  0  0  0  0  0  0
    9.0730    5.5270   -1.1380 H   0  0  0  0  0  0  0  0  0  0  0  0
    9.3690    7.2810   -1.1350 H   0  0  0  0  0  0  0  0  0  0  0  0
    7.2710    6.7340   -1.3710 C   0  0  0  0  0  0  0  0  0  0  0  0
    6.9860    6.4380   -0.3620 H   0  0  0  0  0  0  0  0  0  0  0  0
    6.6770    6.1740   -2.0940 H   0  0  0  0  0  0  0  0  0  0  0  0
    7.0740    8.1750   -1.5550 N   0  0  0  0  0  0  0  0  0  0  0  0
    7.9010    8.7810   -1.3810 H   0  0  0  0  0  0  0  0  0  0  0  0
    5.9530    8.7950   -1.9200 C   0  0  0  0  0  0  0  0  0  0  0  0
    4.8300    8.1290   -2.1550 N   0  0  0  0  0  4  0  0  0  0  0  0
    4.8090    7.0940   -2.0560 H   0  0  0  0  0  0  0  0  0  0  0  0
    3.9710    8.6420   -2.4390 H   0  0  0  0  0  0  0  0  0  0  0  0
    5.9750   10.1110   -2.0680 N   0  0  0  0  0  0  0  0  0  0  0  0
    6.8550   10.6390   -1.9000 H   0  0  0  0  0  0  0  0  0  0  0  0
    5.1120   10.6170   -2.3520 H   0  0  0  0  0  0  0  0  0  0  0  0
   11.6800   13.6970    2.1500 N   0  0  0  0  0  2  0  0  0  0  0  0
   11.0060   14.3750    1.7400 H   0  0  0  0  0  0  0  0  0  0  0  0
   12.3750   12.7460    1.2760 C   0  0  2  0  0  0  0  0  0  0  0  0
   12.5890   11.8420    1.8460 H   0  0  0  0  0  0  0  0  0  0  0  0
   13.6730   13.4000    0.7880 C   0  0  0  0  0  3  0  0  0  0  0  0
   13.6690   14.3550    0.0170 O   0  0  0  0  0  0  0  0  0  0  0  0
   11.5200   12.3200    0.0890 C   0  0  0  0  0  0  0  0  0  0  0  0
   11.3570   13.1990   -0.5350 H   0  0  0  0  0  0  0  0  0  0  0  0
   12.0810   11.5750   -0.4740 H   0  0  0  0  0  0  0  0  0  0  0  0
   10.1640   11.7270    0.4160 C   0  0  0  0  0  0  0  0  0  0  0  0
   10.0310   10.3500    0.7370 C   0  0  0  0  0  0  0  0  0  0  0  0
   10.9170    9.7150    0.7680 H   0  0  0  0  0  0  0  0  0  0  0  0
    9.0060   12.5450    0.3790 C   0  0  0  0  0  0  0  0  0  0  0  0
    9.1020   13.6000    0.1210 H   0  0  0  0  0  0  0  0  0  0  0  0
    8.7740    9.8000    1.0140 C   0  0  0  0  0  0  0  0  0  0  0  0
    8.6750    8.7420    1.2580 H   0  0  0  0  0  0  0  0  0  0  0  0
    7.7410   12.0170    0.6690 C   0  0  0  0  0  0  0  0  0  0  0  0
    6.8570   12.6550    0.6610 H   0  0  0  0  0  0  0  0  0  0  0  0
    7.6340   10.6360    0.9730 C   0  0  0  0  0  0  0  0  0  0  0  0
    6.3730   10.1120    1.2340 O   0  0  0  0  0  0  0  0  0  0  0  0
    6.4530    9.1450    1.4290 H   0  0  0  0  0  0  0  0  0  0  0  0
    6.8140   13.4770   -8.2220 H   0  0  0  0  0  0  0  0  0  0  0  0
   -8.7350    4.5970   -6.3320 H   0  0  0  0  0  0  0  0  0  0  0  0
  1  2  1  0
  1  3  1  0
  3  4  1  6
  3  5  1  0
  3  7  1  0
  5  6  2  0
  7  8  1  0
  7  9  1  0
  7 10  1  0
 10 11  2  0
 10 12  1  0
 12250  1  0
 13 14  1  0
 13 15  1  0
 15 16  1  6
 15 17  1  0
 15 19  1  0
 17 18  2  0
 17 24  1  0
 19 20  1  0
 19 21  1  0
 19 22  1  0
 22 23  1  0
 24 25  1  0
 24 26  1  0
 26 27  1  1
 26 28  1  0
 26 30  1  0
 28 29  2  0
 28 35  1  0
 30 31  1  0
 30 32  1  0
 30 33  1  0
 33 34  1  0
 35 36  1  0
 35 37  1  0
 37 38  1  6
 37 39  1  0
 37 41  1  0
 39 40  2  0
 41 42  1  0
 41 43  1  0
 41 44  1  0
 44 45  2  0
 44 47  1  0
 45 46  1  0
 45 49  1  0
 47 48  1  0
 47 51  2  0
 49 50  1  0
 49 53  2  0
 51 52  1  0
 51 53  1  0
 53 54  1  0
 55 56  1  0
 55 57  1  0
 57 58  1  6
 57 59  1  0
 57 61  1  0
 59 60  2  0
 61 62  1  0
 61 63  1  0
 61 67  1  0
 63 64  1  0
 63 65  1  0
 63 66  1  0
 67 68  1  0
 67 69  1  0
 67 70  1  0
 71 72  1  0
 71 73  1  0
 73 74  1  1
 73 75  1  0
 73 77  1  0
 75 76  2  0
 77 78  1  6
 77 79  1  0
 77 82  1  0
 79 80  1  0
 79 81  1  0
 79 86  1  0
 82 83  1  0
 82 84  1  0
 82 85  1  0
 86 87  1  0
 86 88  1  0
 86 89  1  0
 90 91  1  0
 90 92  1  0
 92 93  1  6
 92 94  1  0
 92 96  1  0
 94 95  2  0
 96 97  1  0
 96 98  1  0
 96 99  1  0
 99100  1  0
 99101  2  0
100103  2  0
101102  1  0
101105  1  0
103104  1  0
103105  1  0
105251  1  0
106107  1  0
106108  1  0
108109  1  1
108110  1  0
108112  1  0
110111  2  0
112113  1  0
112114  1  0
112118  1  0
114115  1  0
114116  1  0
114117  1  0
118119  1  0
118120  1  0
118121  1  0
122123  1  0
122124  1  0
124125  1  1
124126  1  0
124128  1  0
126127  2  0
126132  1  0
128129  1  0
128130  1  0
128131  1  0
132133  1  0
132134  1  0
134135  1  1
134136  1  0
134138  1  0
136137  2  0
136143  1  0
138139  1  0
138140  1  0
138141  1  0
141142  1  0
143144  1  0
143145  1  0
145146  1  1
145147  1  0
145149  1  0
147148  2  0
149150  1  0
149151  1  0
149152  1  0
152153  1  0
152154  1  0
152158  1  0
154155  1  0
154156  1  0
154157  1  0
158159  1  0
158160  1  0
158161  1  0
162163  1  0
162164  1  0
164165  1  6
164166  1  0
164168  1  0
166167  2  0
166184  1  0
168169  1  0
168170  1  0
168171  1  0
171172  1  0
171173  1  0
171174  1  0
174175  1  0
174176  1  0
174177  1  0
177178  1  0
177179  1  0
177180  1  0
180181  1  0
180182  1  0
180183  1  0
184185  1  0
184186  1  0
186187  1  6
186188  1  0
186190  1  0
188189  2  0
190191  1  0
190192  1  0
190193  1  0
193194  2  0
193196  1  0
194195  1  0
194198  1  0
196197  1  0
196200  2  0
198199  1  0
198202  2  0
200201  1  0
200202  1  0
202203  1  0
203204  1  0
205206  1  0
205207  1  0
207208  1  6
207209  1  0
207211  1  0
209210  2  0
211212  1  0
211213  1  0
211214  1  0
214215  1  0
214216  1  0
214217  1  0
217218  1  0
217219  1  0
217220  1  0
220221  1  0
220222  1  0
222223  2  0
222226  1  0
223224  1  0
223225  1  0
226227  1  0
226228  1  0
229230  1  0
229231  1  0
231232  1  1
231233  1  0
231235  1  0
233234  2  0
235236  1  0
235237  1  0
235238  1  0
238239  2  0
238241  1  0
239240  1  0
239243  1  0
241242  1  0
241245  2  0
243244  1  0
243247  2  0
245246  1  0
245247  1  0
247248  1  0
248249  1  0
M  RAD  8   1   2   5   2  13   2  39   2  55   2  59   2  71   2  75   2
M  RAD  8  90   2  94   2 106   2 110   2 122   2 147   2 162   2 188   2
M  CHG  2 180   1 223   1
M  RAD  4 205   2 209   2 229   2 233   2
M  END
$$$$

     RDKit          3D

251245  0  0  0  0  0  0  0  0999 V2000
    8.2390   15.7430  -10.2460 N   0  0  0  0  0  2  0  0  0  0  0  0
    8.4060   14.8450   -9.7480 H   0  0  0  0  0  0  0  0  0  0  0  0
    7.1270   16.5820   -9.8330 C   0  0  2  0  0  0  0  0  0  0  0  0
    6.5240   16.7530  -10.7240 H   0  0  0  0  0  0  0  0  0  0  0  0
    7.5010   17.9630   -9.3590 C   0  0  0  0  0  3  0  0  0  0  0  0
    8.3130   18.1090   -8.4540 O   0  0  0  0  0  0  0  0  0  0  0  0
    6.3630   15.8620   -8.7680 C   0  0  0  0  0  0  0  0  0  0  0  0
    7.0440   15.5910   -7.9610 H   0  0  0  0  0  0  0  0  0  0  0  0
    5.5850   16.5200   -8.3800 H   0  0  0  0  0  0  0  0  0  0  0  0
    5.7360   14.6350   -9.3040 C   0  0  0  0  0  0  0  0  0  0  0  0
    4.8520   14.7920  -10.1880 O   0  0  0  0  0  0  0  0  0  0  0  0
    6.1520   13.5130   -8.8840 O   0  0  0  0  0  0  0  0  0  0  0  0
    1.6580   16.8130  -11.9920 N   0  0  0  0  0  2  0  0  0  0  0  0
    2.3630   16.6600  -11.2430 H   0  0  0  0  0  0  0  0  0  0  0  0
    0.5750   15.8710  -12.1280 C   0  0  2  0  0  0  0  0  0  0  0  0
    0.1290   15.9910  -13.1150 H   0  0  0  0  0  0  0  0  0  0  0  0
   -0.5220   16.1130  -11.1130 C   0  0  0  0  0  0  0  0  0  0  0  0
   -0.2990   16.7340  -10.0760 O   0  0  0  0  0  0  0  0  0  0  0  0
    1.1300   14.4960  -11.9520 C   0  0  0  0  0  0  0  0  0  0  0  0
    0.3140   13.7740  -11.9180 H   0  0  0  0  0  0  0  0  0  0  0  0
    1.6970   14.4460  -11.0220 H   0  0  0  0  0  0  0  0  0  0  0  0
    1.9940   14.1960  -13.0610 O   0  0  0  0  0  0  0  0  0  0  0  0
    2.3660   13.2850  -12.9510 H   0  0  0  0  0  0  0  0  0  0  0  0
   -1.7070   15.5990  -11.3820 N   0  0  0  0  0  0  0  0  0  0  0  0
   -1.8300   15.0390  -12.2500 H   0  0  0  0  0  0  0  0  0  0  0  0
   -2.8500   15.7940  -10.4960 C   0  0  2  0  0  0  0  0  0  0  0  0
   -2.4940   15.6940   -9.4710 H   0  0  0  0  0  0  0  0  0  0  0  0
   -3.9360   14.7420  -10.7100 C   0  0  0  0  0  0  0  0  0  0  0  0
   -4.1170   14.2150  -11.8220 O   0  0  0  0  0  0  0  0  0  0  0  0
   -3.4310   17.1680  -10.7260 C   0  0  0  0  0  0  0  0  0  0  0  0
   -3.6970   17.2780  -11.7770 H   0  0  0  0  0  0  0  0  0  0  0  0
   -2.6920   17.9230  -10.4590 H   0  0  0  0  0  0  0  0  0  0  0  0
   -4.5930   17.3400   -9.9250 O   0  0  0  0  0  0  0  0  0  0  0  0
   -4.9690   18.2430  -10.0800 H   0  0  0  0  0  0  0  0  0  0  0  0
   -4.6520   14.4140   -9.6350 N   0  0  0  0  0  0  0  0  0  0  0  0
   -4.3590   14.7920   -8.7110 H   0  0  0  0  0  0  0  0  0  0  0  0
   -5.8320   13.5460   -9.6910 C   0  0  2  0  0  0  0  0  0  0  0  0
   -5.6450   12.7780  -10.4420 H   0  0  0  0  0  0  0  0  0  0  0  0
   -7.0770   14.3290  -10.1220 C   0  0  0  0  0  3  0  0  0  0  0  0
   -8.0250   13.7390  -10.5890 O   0  0  0  0  0  0  0  0  0  0  0  0
   -6.0610   12.8570   -8.3570 C   0  0  0  0  0  0  0  0  0  0  0  0
   -5.9730   13.6020   -7.5670 H   0  0  0  0  0  0  0  0  0  0  0  0
   -7.0700   12.4440   -8.3540 H   0  0  0  0  0  0  0  0  0  0  0  0
   -5.0730   11.7210   -8.0610 C   0  0  0  0  0  0  0  0  0  0  0  0
   -4.0720   11.8810   -7.1020 C   0  0  0  0  0  0  0  0  0  0  0  0
   -3.9860   12.8270   -6.5670 H   0  0  0  0  0  0  0  0  0  0  0  0
   -5.1740   10.4980   -8.7080 C   0  0  0  0  0  0  0  0  0  0  0  0
   -5.9560   10.3530   -9.4530 H   0  0  0  0  0  0  0  0  0  0  0  0
   -3.1820   10.8480   -6.8190 C   0  0  0  0  0  0  0  0  0  0  0  0
   -2.4060   10.9870   -6.0660 H   0  0  0  0  0  0  0  0  0  0  0  0
   -4.2920    9.4420   -8.4250 C   0  0  0  0  0  0  0  0  0  0  0  0
   -4.4060    8.4830   -8.9310 H   0  0  0  0  0  0  0  0  0  0  0  0
   -3.2860    9.6220   -7.5080 C   0  0  0  0  0  0  0  0  0  0  0  0
   -2.5720    8.8220   -7.3140 H   0  0  0  0  0  0  0  0  0  0  0  0
   -3.3140    5.0230  -13.0570 N   0  0  0  0  0  2  0  0  0  0  0  0
   -4.1400    5.6150  -12.8370 H   0  0  0  0  0  0  0  0  0  0  0  0
   -2.5170    4.4610  -11.9940 C   0  0  2  0  0  0  0  0  0  0  0  0
   -1.7250    3.8470  -12.4230 H   0  0  0  0  0  0  0  0  0  0  0  0
   -3.4380    3.6400  -11.1070 C   0  0  0  0  0  3  0  0  0  0  0  0
   -4.4710    4.1900  -10.6370 O   0  0  0  0  0  0  0  0  0  0  0  0
   -1.8540    5.5840  -11.1350 C   0  0  0  0  0  0  0  0  0  0  0  0
   -2.6490    6.2450  -10.7900 H   0  0  0  0  0  0  0  0  0  0  0  0
   -1.1450    4.9970   -9.9330 C   0  0  0  0  0  0  0  0  0  0  0  0
   -1.8650    4.4610   -9.3150 H   0  0  0  0  0  0  0  0  0  0  0  0
   -0.3700    4.3090  -10.2700 H   0  0  0  0  0  0  0  0  0  0  0  0
   -0.6920    5.8000   -9.3520 H   0  0  0  0  0  0  0  0  0  0  0  0
   -0.8790    6.3820  -11.9530 C   0  0  0  0  0  0  0  0  0  0  0  0
   -0.0980    5.7220  -12.3300 H   0  0  0  0  0  0  0  0  0  0  0  0
   -1.4020    6.8440  -12.7900 H   0  0  0  0  0  0  0  0  0  0  0  0
   -0.4320    7.1570  -11.3300 H   0  0  0  0  0  0  0  0  0  0  0  0
   -4.5210    2.0210   -7.7850 N   0  0  0  0  0  2  0  0  0  0  0  0
   -5.4600    2.1270   -8.2190 H   0  0  0  0  0  0  0  0  0  0  0  0
   -4.3760    2.2860   -6.3400 C   0  0  2  0  0  0  0  0  0  0  0  0
   -3.3700    1.9630   -6.0710 H   0  0  0  0  0  0  0  0  0  0  0  0
   -5.3740    1.4700   -5.5200 C   0  0  0  0  0  3  0  0  0  0  0  0
   -6.6090    1.7400   -5.5300 O   0  0  0  0  0  0  0  0  0  0  0  0
   -4.4620    3.8040   -5.9870 C   0  0  2  0  0  0  0  0  0  0  0  0
   -5.4400    4.1780   -6.2900 H   0  0  0  0  0  0  0  0  0  0  0  0
   -3.3750    4.5860   -6.7450 C   0  0  0  0  0  0  0  0  0  0  0  0
   -2.4260    4.4330   -6.2310 H   0  0  0  0  0  0  0  0  0  0  0  0
   -3.3090    4.1820   -7.7550 H   0  0  0  0  0  0  0  0  0  0  0  0
   -4.3050    4.0130   -4.4580 C   0  0  0  0  0  0  0  0  0  0  0  0
   -5.1000    3.4810   -3.9360 H   0  0  0  0  0  0  0  0  0  0  0  0
   -3.3370    3.6280   -4.1370 H   0  0  0  0  0  0  0  0  0  0  0  0
   -4.3670    5.0770   -4.2300 H   0  0  0  0  0  0  0  0  0  0  0  0
   -3.6210    6.0930   -6.8510 C   0  0  0  0  0  0  0  0  0  0  0  0
   -4.5590    6.2710   -7.3760 H   0  0  0  0  0  0  0  0  0  0  0  0
   -3.6760    6.5220   -5.8510 H   0  0  0  0  0  0  0  0  0  0  0  0
   -2.8020    6.5560   -7.4010 H   0  0  0  0  0  0  0  0  0  0  0  0
   -7.1030    4.9550  -11.2140 N   0  0  0  0  0  2  0  0  0  0  0  0
   -6.1220    4.6450  -11.0650 H   0  0  0  0  0  0  0  0  0  0  0  0
   -7.3690    6.3930  -11.2260 C   0  0  2  0  0  0  0  0  0  0  0  0
   -8.4260    6.5500  -11.4390 H   0  0  0  0  0  0  0  0  0  0  0  0
   -6.5510    7.1110  -12.3230 C   0  0  0  0  0  3  0  0  0  0  0  0
   -5.3670    6.8340  -12.4820 O   0  0  0  0  0  0  0  0  0  0  0  0
   -6.9990    6.9690   -9.8590 C   0  0  0  0  0  0  0  0  0  0  0  0
   -5.9460    6.7590   -9.6690 H   0  0  0  0  0  0  0  0  0  0  0  0
   -7.1550    8.0480   -9.8840 H   0  0  0  0  0  0  0  0  0  0  0  0
   -7.8100    6.3970   -8.7320 C   0  0  0  0  0  0  0  0  0  0  0  0
   -9.1120    6.7880   -8.4820 N   0  0  0  0  0  0  0  0  0  0  0  0
   -7.5200    5.4300   -7.8250 C   0  0  0  0  0  0  0  0  0  0  0  0
   -6.5730    4.9000   -7.7210 H   0  0  0  0  0  0  0  0  0  0  0  0
   -9.5840    6.0790   -7.4730 C   0  0  0  0  0  0  0  0  0  0  0  0
  -10.5840    6.1660   -7.0470 H   0  0  0  0  0  0  0  0  0  0  0  0
   -8.6430    5.2470   -7.0660 N   0  0  0  0  0  0  0  0  0  0  0  0
   -4.3430    9.9870  -13.8600 N   0  0  0  0  0  2  0  0  0  0  0  0
   -3.9430    9.2670  -14.4950 H   0  0  0  0  0  0  0  0  0  0  0  0
   -3.4660   11.0950  -13.4060 C   0  0  2  0  0  0  0  0  0  0  0  0
   -3.9980   11.6020  -12.6010 H   0  0  0  0  0  0  0  0  0  0  0  0
   -3.1980   12.0700  -14.5610 C   0  0  0  0  0  3  0  0  0  0  0  0
   -2.6940   11.6660  -15.6100 O   0  0  0  0  0  0  0  0  0  0  0  0
   -2.1230   10.5980  -12.8370 C   0  0  0  0  0  0  0  0  0  0  0  0
   -1.6160   10.0380  -13.6230 H   0  0  0  0  0  0  0  0  0  0  0  0
   -1.2160   11.7770  -12.4230 C   0  0  0  0  0  0  0  0  0  0  0  0
   -1.0140   12.4010  -13.2930 H   0  0  0  0  0  0  0  0  0  0  0  0
   -1.7190   12.3690  -11.6580 H   0  0  0  0  0  0  0  0  0  0  0  0
   -0.2780   11.3900  -12.0260 H   0  0  0  0  0  0  0  0  0  0  0  0
   -2.3600    9.6900  -11.6480 C   0  0  0  0  0  0  0  0  0  0  0  0
   -2.8940   10.2400  -10.8730 H   0  0  0  0  0  0  0  0  0  0  0  0
   -2.9540    8.8310  -11.9610 H   0  0  0  0  0  0  0  0  0  0  0  0
   -1.4020    9.3470  -11.2570 H   0  0  0  0  0  0  0  0  0  0  0  0
   10.6540   11.3050   -5.5760 N   0  0  0  0  0  2  0  0  0  0  0  0
   10.3920   12.2850   -5.8030 H   0  0  0  0  0  0  0  0  0  0  0  0
   10.0940   10.6720   -4.3490 C   0  0  2  0  0  0  0  0  0  0  0  0
   10.8680    9.9920   -3.9930 H   0  0  0  0  0  0  0  0  0  0  0  0
    8.8430    9.8410   -4.6350 C   0  0  0  0  0  0  0  0  0  0  0  0
    8.3760    9.1070   -3.7350 O   0  0  0  0  0  0  0  0  0  0  0  0
    9.8210   11.6790   -3.2540 C   0  0  0  0  0  0  0  0  0  0  0  0
   10.7510   12.1790   -2.9810 H   0  0  0  0  0  0  0  0  0  0  0  0
    9.1020   12.4160   -3.6110 H   0  0  0  0  0  0  0  0  0  0  0  0
    9.4140   11.1650   -2.3830 H   0  0  0  0  0  0  0  0  0  0  0  0
    8.3280    9.9240   -5.8760 N   0  0  0  0  0  0  0  0  0  0  0  0
    8.8050   10.5390   -6.5650 H   0  0  0  0  0  0  0  0  0  0  0  0
    7.1420    9.2010   -6.3060 C   0  0  2  0  0  0  0  0  0  0  0  0
    6.4000    9.3360   -5.5190 H   0  0  0  0  0  0  0  0  0  0  0  0
    7.4250    7.7530   -6.4980 C   0  0  0  0  0  0  0  0  0  0  0  0
    8.5700    7.2700   -6.4620 O   0  0  0  0  0  0  0  0  0  0  0  0
    6.6180    9.7450   -7.6390 C   0  0  0  0  0  0  0  0  0  0  0  0
    5.6190    9.3460   -7.8150 H   0  0  0  0  0  0  0  0  0  0  0  0
    7.2840    9.4210   -8.4390 H   0  0  0  0  0  0  0  0  0  0  0  0
    6.5530   11.1910   -7.6390 O   0  0  0  0  0  0  0  0  0  0  0  0
    6.2110   11.5050   -8.5140 H   0  0  0  0  0  0  0  0  0  0  0  0
    6.3550    7.0580   -6.8100 N   0  0  0  0  0  0  0  0  0  0  0  0
    5.4610    7.5640   -6.9720 H   0  0  0  0  0  0  0  0  0  0  0  0
    6.3700    5.6400   -6.9350 C   0  0  2  0  0  0  0  0  0  0  0  0
    7.1620    5.1570   -6.3640 H   0  0  0  0  0  0  0  0  0  0  0  0
    6.5790    5.3360   -8.4090 C   0  0  0  0  0  3  0  0  0  0  0  0
    6.0940    6.0730   -9.2600 O   0  0  0  0  0  0  0  0  0  0  0  0
    5.0220    5.1190   -6.4090 C   0  0  0  0  0  0  0  0  0  0  0  0
    4.2350    5.7010   -6.8870 H   0  0  0  0  0  0  0  0  0  0  0  0
    4.9330    4.0750   -6.7090 H   0  0  0  0  0  0  0  0  0  0  0  0
    4.7900    5.1880   -4.8740 C   0  0  0  0  0  0  0  0  0  0  0  0
    5.0100    6.2120   -4.5710 H   0  0  0  0  0  0  0  0  0  0  0  0
    3.3110    4.7880   -4.5700 C   0  0  0  0  0  0  0  0  0  0  0  0
    2.6380    5.4790   -5.0770 H   0  0  0  0  0  0  0  0  0  0  0  0
    3.1300    3.7740   -4.9260 H   0  0  0  0  0  0  0  0  0  0  0  0
    3.1370    4.8330   -3.4950 H   0  0  0  0  0  0  0  0  0  0  0  0
    5.7270    4.2640   -4.0560 C   0  0  0  0  0  0  0  0  0  0  0  0
    5.5710    3.2290   -4.3610 H   0  0  0  0  0  0  0  0  0  0  0  0
    6.7640    4.5460   -4.2400 H   0  0  0  0  0  0  0  0  0  0  0  0
    5.5030    4.3690   -2.9940 H   0  0  0  0  0  0  0  0  0  0  0  0
    5.3050    3.2970  -10.3550 N   0  0  0  0  0  2  0  0  0  0  0  0
    5.3190    3.2100   -9.3190 H   0  0  0  0  0  0  0  0  0  0  0  0
    4.1120    2.9140  -11.0930 C   0  0  2  0  0  0  0  0  0  0  0  0
    4.3770    2.2010  -11.8730 H   0  0  0  0  0  0  0  0  0  0  0  0
    3.5250    4.1710  -11.7290 C   0  0  0  0  0  0  0  0  0  0  0  0
    2.8290    4.0740  -12.7370 O   0  0  0  0  0  0  0  0  0  0  0  0
    3.0890    2.1810  -10.2000 C   0  0  0  0  0  0  0  0  0  0  0  0
    2.2390    1.8870  -10.8160 H   0  0  0  0  0  0  0  0  0  0  0  0
    3.5630    1.2900   -9.7890 H   0  0  0  0  0  0  0  0  0  0  0  0
    2.5850    3.0260   -9.0590 C   0  0  0  0  0  0  0  0  0  0  0  0
    3.2850    2.9380   -8.2280 H   0  0  0  0  0  0  0  0  0  0  0  0
    2.5440    4.0640   -9.3890 H   0  0  0  0  0  0  0  0  0  0  0  0
    1.2080    2.6210   -8.5730 C   0  0  0  0  0  0  0  0  0  0  0  0
    0.7530    3.4710   -8.0650 H   0  0  0  0  0  0  0  0  0  0  0  0
    0.6000    2.3470   -9.4350 H   0  0  0  0  0  0  0  0  0  0  0  0
    1.2480    1.4500   -7.6160 C   0  0  0  0  0  0  0  0  0  0  0  0
    2.1300    1.5540   -6.9850 H   0  0  0  0  0  0  0  0  0  0  0  0
    1.3270    0.5330   -8.2000 H   0  0  0  0  0  0  0  0  0  0  0  0
    0.0220    1.3380   -6.7120 N   0  0  0  0  0  4  0  0  0  0  0  0
   -0.0630    2.2000   -6.1370 H   0  0  0  0  0  0  0  0  0  0  0  0
   -0.8300    1.2250   -7.2980 H   0  0  0  0  0  0  0  0  0  0  0  0
    0.1270    0.5130   -6.0880 H   0  0  0  0  0  0  0  0  0  0  0  0
    3.8150    5.3320  -11.1570 N   0  0  0  0  0  0  0  0  0  0  0  0
    4.3440    5.3460  -10.2620 H   0  0  0  0  0  0  0  0  0  0  0  0
    3.4060    6.5700  -11.7600 C   0  0  2  0  0  0  0  0  0  0  0  0
    2.6010    6.3500  -12.4610 H   0  0  0  0  0  0  0  0  0  0  0  0
    4.5830    7.2000  -12.5340 C   0  0  0  0  0  3  0  0  0  0  0  0
    4.3900    7.6850  -13.6440 O   0  0  0  0  0  0  0  0  0  0  0  0
    2.8330    7.5740  -10.6990 C   0  0  0  0  0  0  0  0  0  0  0  0
    1.7520    7.4410  -10.6510 H   0  0  0  0  0  0  0  0  0  0  0  0
    3.2710    7.3350   -9.7300 H   0  0  0  0  0  0  0  0  0  0  0  0
    3.1220    9.0400  -11.0060 C   0  0  0  0  0  0  0  0  0  0  0  0
    2.4190    9.6990  -11.9770 C   0  0  0  0  0  0  0  0  0  0  0  0
    1.6340    9.1740  -12.5200 H   0  0  0  0  0  0  0  0  0  0  0  0
    4.1580    9.7400  -10.3510 C   0  0  0  0  0  0  0  0  0  0  0  0
    4.7460    9.2230   -9.5930 H   0  0  0  0  0  0  0  0  0  0  0  0
    2.7000   11.0760  -12.2930 C   0  0  0  0  0  0  0  0  0  0  0  0
    2.1060   11.5870  -13.0510 H   0  0  0  0  0  0  0  0  0  0  0  0
    4.4620   11.1120  -10.6520 C   0  0  0  0  0  0  0  0  0  0  0  0
    5.2550   11.6380  -10.1200 H   0  0  0  0  0  0  0  0  0  0  0  0
    3.7150   11.7570  -11.6450 C   0  0  0  0  0  0  0  0  0  0  0  0
    3.9630   13.0750  -12.0290 O   0  0  0  0  0  0  0  0  0  0  0  0
    3.3260   13.3360  -12.7410 H   0  0  0  0  0  0  0  0  0  0  0  0
   10.9780    6.3050   -4.9480 N   0  0  0  0  0  2  0  0  0  0  0  0
   10.1880    5.9880   -5.5450 H   0  0  0  0  0  0  0  0  0  0  0  0
   10.7200    6.5580   -3.5270 C   0  0  2  0  0  0  0  0  0  0  0  0
   10.9690    7.6020   -3.3390 H   0  0  0  0  0  0  0  0  0  0  0  0
   11.6250    5.7190   -2.6400 C   0  0  0  0  0  3  0  0  0  0  0  0
   12.2670    6.2920   -1.7970 O   0  0  0  0  0  0  0  0  0  0  0  0
    9.2040    6.4100   -3.1540 C   0  0  0  0  0  0  0  0  0  0  0  0
    8.6640    7.2090   -3.6620 H   0  0  0  0  0  0  0  0  0  0  0  0
    8.8680    5.4460   -3.5360 H   0  0  0  0  0  0  0  0  0  0  0  0
    8.8060    6.4750   -1.6050 C   0  0  0  0  0  0  0  0  0  0  0  0
    9.0730    5.5270   -1.1380 H   0  0  0  0  0  0  0  0  0  0  0  0
    9.3690    7.2810   -1.1350 H   0  0  0  0  0  0  0  0  0  0  0  0
    7.2710    6.7340   -1.3710 C   0  0  0  0  0  0  0  0  0  0  0  0
    6.9860    6.4380   -0.3620 H   0  0  0  0  0  0  0  0  0  0  0  0
    6.6770    6.1740   -2.0940 H   0  0  0  0  0  0  0  0  0  0  0  0
    7.0740    8.1750   -1.5550 N   0  0  0  0  0  0  0  0  0  0  0  0
    7.9010    8.7810   -1.3810 H   0  0  0  0  0  0  0  0  0  0  0  0
    5.9530    8.7950   -1.9200 C   0  0  0  0  0  0  0  0  0  0  0  0
    4.8300    8.1290   -2.1550 N   0  0  0  0  0  4  0  0  0  0  0  0
    4.8090    7.0940   -2.0560 H   0  0  0  0  0  0  0  0  0  0  0  0
    3.9710    8.6420   -2.4390 H   0  0  0  0  0  0  0  0  0  0  0  0
    5.9750   10.1110   -2.0680 N   0  0  0  0  0  0  0  0  0  0  0  0
    6.8550   10.6390   -1.9000 H   0  0  0  0  0  0  0  0  0  0  0  0
    5.1120   10.6170   -2.3520 H   0  0  0  0  0  0  0  0  0  0  0  0
   11.6800   13.6970    2.1500 N   0  0  0  0  0  2  0  0  0  0  0  0
   11.0060   14.3750    1.7400 H   0  0  0  0  0  0  0  0  0  0  0  0
   12.3750   12.7460    1.2760 C   0  0  2  0  0  0  0  0  0  0  0  0
   12.5890   11.8420    1.8460 H   0  0  0  0  0  0  0  0  0  0  0  0
   13.6730   13.4000    0.7880 C   0  0  0  0  0  3  0  0  0  0  0  0
   13.6690   14.3550    0.0170 O   0  0  0  0  0  0  0  0  0  0  0  0
   11.5200   12.3200    0.0890 C   0  0  0  0  0  0  0  0  0  0  0  0
   11.3570   13.1990   -0.5350 H   0  0  0  0  0  0  0  0  0  0  0  0
   12.0810   11.5750   -0.4740 H   0  0  0  0  0  0  0  0  0  0  0  0
   10.1640   11.7270    0.4160 C   0  0  0  0  0  0  0  0  0  0  0  0
   10.0310   10.3500    0.7370 C   0  0  0  0  0  0  0  0  0  0  0  0
   10.9170    9.7150    0.7680 H   0  0  0  0  0  0  0  0  0  0  0  0
    9.0060   12.5450    0.3790 C   0  0  0  0  0  0  0  0  0  0  0  0
    9.1020   13.6000    0.1210 H   0  0  0  0  0  0  0  0  0  0  0  0
    8.7740    9.8000    1.0140 C   0  0  0  0  0  0  0  0  0  0  0  0
    8.6750    8.7420    1.2580 H   0  0  0  0  0  0  0  0  0  0  0  0
    7.7410   12.0170    0.6690 C   0  0  0  0  0  0  0  0  0  0  0  0
    6.8570   12.6550    0.6610 H   0  0  0  0  0  0  0  0  0  0  0  0
    7.6340   10.6360    0.9730 C   0  0  0  0  0  0  0  0  0  0  0  0
    6.3730   10.1120    1.2340 O   0  0  0  0  0  0  0  0  0  0  0  0
    6.4530    9.1450    1.4290 H   0  0  0  0  0  0  0  0  0  0  0  0
    6.8140   13.4770   -8.2220 H   0  0  0  0  0  0  0  0  0  0  0  0
   -8.7350    4.5970   -6.3320 H   0  0  0  0  0  0  0  0  0  0  0  0
  1  2  1  0
  1  3  1  0
  3  4  1  6
  3  5  1  0
  3  7  1  0
  5  6  2  0
  7  8  1  0
  7  9  1  0
  7 10  1  0
 10 11  2  0
 10 12  1  0
 12250  1  0
 13 14  1  0
 13 15  1  0
 15 16  1  6
 15 17  1  0
 15 19  1  0
 17 18  2  0
 17 24  1  0
 19 20  1  0
 19 21  1  0
 19 22  1  0
 22 23  1  0
 24 25  1  0
 24 26  1  0
 26 27  1  1
 26 28  1  0
 26 30  1  0
 28 29  2  0
 28 35  1  0
 30 31  1  0
 30 32  1  0
 30 33  1  0
 33 34  1  0
 35 36  1  0
 35 37  1  0
 37 38  1  6
 37 39  1  0
 37 41  1  0
 39 40  2  0
 41 42  1  0
 41 43  1  0
 41 44  1  0
 44 45  2  0
 44 47  1  0
 45 46  1  0
 45 49  1  0
 47 48  1  0
 47 51  2  0
 49 50  1  0
 49 53  2  0
 51 52  1  0
 51 53  1  0
 53 54  1  0
 55 56  1  0
 55 57  1  0
 57 58  1  6
 57 59  1  0
 57 61  1  0
 59 60  2  0
 61 62  1  0
 61 63  1  0
 61 67  1  0
 63 64  1  0
 63 65  1  0
 63 66  1  0
 67 68  1  0
 67 69  1  0
 67 70  1  0
 71 72  1  0
 71 73  1  0
 73 74  1  1
 73 75  1  0
 73 77  1  0
 75 76  2  0
 77 78  1  6
 77 79  1  0
 77 82  1  0
 79 80  1  0
 79 81  1  0
 79 86  1  0
 82 83  1  0
 82 84  1  0
 82 85  1  0
 86 87  1  0
 86 88  1  0
 86 89  1  0
 90 91  1  0
 90 92  1  0
 92 93  1  6
 92 94  1  0
 92 96  1  0
 94 95  2  0
 96 97  1  0
 96 98  1  0
 96 99  1  0
 99100  1  0
 99101  2  0
100103  2  0
101102  1  0
101105  1  0
103104  1  0
103105  1  0
105251  1  0
106107  1  0
106108  1  0
108109  1  1
108110  1  0
108112  1  0
110111  2  0
112113  1  0
112114  1  0
112118  1  0
114115  1  0
114116  1  0
114117  1  0
118119  1  0
118120  1  0
118121  1  0
122123  1  0
122124  1  0
124125  1  1
124126  1  0
124128  1  0
126127  2  0
126132  1  0
128129  1  0
128130  1  0
128131  1  0
132133  1  0
132134  1  0
134135  1  1
134136  1  0
134138  1  0
136137  2  0
136143  1  0
138139  1  0
138140  1  0
138141  1  0
141142  1  0
143144  1  0
143145  1  0
145146  1  1
145147  1  0
145149  1  0
147148  2  0
149150  1  0
149151  1  0
149152  1  0
152153  1  0
152154  1  0
152158  1  0
154155  1  0
154156  1  0
154157  1  0
158159  1  0
158160  1  0
158161  1  0
162163  1  0
162164  1  0
164165  1  6
164166  1  0
164168  1  0
166167  2  0
166184  1  0
168169  1  0
168170  1  0
168171  1  0
171172  1  0
171173  1  0
171174  1  0
174175  1  0
174176  1  0
174177  1  0
177178  1  0
177179  1  0
177180  1  0
180181  1  0
180182  1  0
180183  1  0
184185  1  0
184186  1  0
186187  1  6
186188  1  0
186190  1  0
188189  2  0
190191  1  0
190192  1  0
190193  1  0
193194  2  0
193196  1  0
194195  1  0
194198  1  0
196197  1  0
196200  2  0
198199  1  0
198202  2  0
200201  1  0
200202  1  0
202203  1  0
203204  1  0
205206  1  0
205207  1  0
207208  1  6
207209  1  0
207211  1  0
209210  2  0
211212  1  0
211213  1  0
211214  1  0
214215  1  0
214216  1  0
214217  1  0
217218  1  0
217219  1  0
217220  1  0
220221  1  0
220222  1  0
222223  2  0
222226  1  0
223224  1  0
223225  1  0
226227  1  0
226228  1  0
229230  1  0
229231  1  0
231232  1  1
231233  1  0
231235  1  0
233234  2  0
235236  1  0
235237  1  0
235238  1  0
238239  2  0
238241  1  0
239240  1  0
239243  1  0
241242  1  0
241245  2  0
243244  1  0
243247  2  0
245246  1  0
245247  1  0
247248  1  0
248249  1  0
M  RAD  8   1   2   5   2  13   2  39   2  55   2  59   2  71   2  75   2
M  RAD  8  90   2  94   2 106   2 110   2 122   2 147   2 162   2 188   2
M  CHG  2 180   1 223   1
M  RAD  4 205   2 209   2 229   2 233   2
M  END
$$$$

     RDKit          3D

251245  0  0  0  0  0  0  0  0999 V2000
    8.2390   15.7430  -10.2460 N   0  0  0  0  0  2  0  0  0  0  0  0
    8.4060   14.8450   -9.7480 H   0  0  0  0  0  0  0  0  0  0  0  0
    7.1270   16.5820   -9.8330 C   0  0  2  0  0  0  0  0  0  0  0  0
    6.5240   16.7530  -10.7240 H   0  0  0  0  0  0  0  0  0  0  0  0
    7.5010   17.9630   -9.3590 C   0  0  0  0  0  3  0  0  0  0  0  0
    8.3130   18.1090   -8.4540 O   0  0  0  0  0  0  0  0  0  0  0  0
    6.3630   15.8620   -8.7680 C   0  0  0  0  0  0  0  0  0  0  0  0
    7.0440   15.5910   -7.9610 H   0  0  0  0  0  0  0  0  0  0  0  0
    5.5850   16.5200   -8.3800 H   0  0  0  0  0  0  0  0  0  0  0  0
    5.7360   14.6350   -9.3040 C   0  0  0  0  0  0  0  0  0  0  0  0
    4.8520   14.7920  -10.1880 O   0  0  0  0  0  0  0  0  0  0  0  0
    6.1520   13.5130   -8.8840 O   0  0  0  0  0  0  0  0  0  0  0  0
    1.6580   16.8130  -11.9920 N   0  0  0  0  0  2  0  0  0  0  0  0
    2.3630   16.6600  -11.2430 H   0  0  0  0  0  0  0  0  0  0  0  0
    0.5750   15.8710  -12.1280 C   0  0  2  0  0  0  0  0  0  0  0  0
    0.1290   15.9910  -13.1150 H   0  0  0  0  0  0  0  0  0  0  0  0
   -0.5220   16.1130  -11.1130 C   0  0  0  0  0  0  0  0  0  0  0  0
   -0.2990   16.7340  -10.0760 O   0  0  0  0  0  0  0  0  0  0  0  0
    1.1300   14.4960  -11.9520 C   0  0  0  0  0  0  0  0  0  0  0  0
    0.3140   13.7740  -11.9180 H   0  0  0  0  0  0  0  0  0  0  0  0
    1.6970   14.4460  -11.0220 H   0  0  0  0  0  0  0  0  0  0  0  0
    1.9940   14.1960  -13.0610 O   0  0  0  0  0  0  0  0  0  0  0  0
    2.3660   13.2850  -12.9510 H   0  0  0  0  0  0  0  0  0  0  0  0
   -1.7070   15.5990  -11.3820 N   0  0  0  0  0  0  0  0  0  0  0  0
   -1.8300   15.0390  -12.2500 H   0  0  0  0  0  0  0  0  0  0  0  0
   -2.8500   15.7940  -10.4960 C   0  0  2  0  0  0  0  0  0  0  0  0
   -2.4940   15.6940   -9.4710 H   0  0  0  0  0  0  0  0  0  0  0  0
   -3.9360   14.7420  -10.7100 C   0  0  0  0  0  0  0  0  0  0  0  0
   -4.1170   14.2150  -11.8220 O   0  0  0  0  0  0  0  0  0  0  0  0
   -3.4310   17.1680  -10.7260 C   0  0  0  0  0  0  0  0  0  0  0  0
   -3.6970   17.2780  -11.7770 H   0  0  0  0  0  0  0  0  0  0  0  0
   -2.6920   17.9230  -10.4590 H   0  0  0  0  0  0  0  0  0  0  0  0
   -4.5930   17.3400   -9.9250 O   0  0  0  0  0  0  0  0  0  0  0  0
   -4.9690   18.2430  -10.0800 H   0  0  0  0  0  0  0  0  0  0  0  0
   -4.6520   14.4140   -9.6350 N   0  0  0  0  0  0  0  0  0  0  0  0
   -4.3590   14.7920   -8.7110 H   0  0  0  0  0  0  0  0  0  0  0  0
   -5.8320   13.5460   -9.6910 C   0  0  2  0  0  0  0  0  0  0  0  0
   -5.6450   12.7780  -10.4420 H   0  0  0  0  0  0  0  0  0  0  0  0
   -7.0770   14.3290  -10.1220 C   0  0  0  0  0  3  0  0  0  0  0  0
   -8.0250   13.7390  -10.5890 O   0  0  0  0  0  0  0  0  0  0  0  0
   -6.0610   12.8570   -8.3570 C   0  0  0  0  0  0  0  0  0  0  0  0
   -5.9730   13.6020   -7.5670 H   0  0  0  0  0  0  0  0  0  0  0  0
   -7.0700   12.4440   -8.3540 H   0  0  0  0  0  0  0  0  0  0  0  0
   -5.0730   11.7210   -8.0610 C   0  0  0  0  0  0  0  0  0  0  0  0
   -4.0720   11.8810   -7.1020 C   0  0  0  0  0  0  0  0  0  0  0  0
   -3.9860   12.8270   -6.5670 H   0  0  0  0  0  0  0  0  0  0  0  0
   -5.1740   10.4980   -8.7080 C   0  0  0  0  0  0  0  0  0  0  0  0
   -5.9560   10.3530   -9.4530 H   0  0  0  0  0  0  0  0  0  0  0  0
   -3.1820   10.8480   -6.8190 C   0  0  0  0  0  0  0  0  0  0  0  0
   -2.4060   10.9870   -6.0660 H   0  0  0  0  0  0  0  0  0  0  0  0
   -4.2920    9.4420   -8.4250 C   0  0  0  0  0  0  0  0  0  0  0  0
   -4.4060    8.4830   -8.9310 H   0  0  0  0  0  0  0  0  0  0  0  0
   -3.2860    9.6220   -7.5080 C   0  0  0  0  0  0  0  0  0  0  0  0
   -2.5720    8.8220   -7.3140 H   0  0  0  0  0  0  0  0  0  0  0  0
   -3.3140    5.0230  -13.0570 N   0  0  0  0  0  2  0  0  0  0  0  0
   -4.1400    5.6150  -12.8370 H   0  0  0  0  0  0  0  0  0  0  0  0
   -2.5170    4.4610  -11.9940 C   0  0  2  0  0  0  0  0  0  0  0  0
   -1.7250    3.8470  -12.4230 H   0  0  0  0  0  0  0  0  0  0  0  0
   -3.4380    3.6400  -11.1070 C   0  0  0  0  0  3  0  0  0  0  0  0
   -4.4710    4.1900  -10.6370 O   0  0  0  0  0  0  0  0  0  0  0  0
   -1.8540    5.5840  -11.1350 C   0  0  0  0  0  0  0  0  0  0  0  0
   -2.6490    6.2450  -10.7900 H   0  0  0  0  0  0  0  0  0  0  0  0
   -1.1450    4.9970   -9.9330 C   0  0  0  0  0  0  0  0  0  0  0  0
   -1.8650    4.4610   -9.3150 H   0  0  0  0  0  0  0  0  0  0  0  0
   -0.3700    4.3090  -10.2700 H   0  0  0  0  0  0  0  0  0  0  0  0
   -0.6920    5.8000   -9.3520 H   0  0  0  0  0  0  0  0  0  0  0  0
   -0.8790    6.3820  -11.9530 C   0  0  0  0  0  0  0  0  0  0  0  0
   -0.0980    5.7220  -12.3300 H   0  0  0  0  0  0  0  0  0  0  0  0
   -1.4020    6.8440  -12.7900 H   0  0  0  0  0  0  0  0  0  0  0  0
   -0.4320    7.1570  -11.3300 H   0  0  0  0  0  0  0  0  0  0  0  0
   -4.5210    2.0210   -7.7850 N   0  0  0  0  0  2  0  0  0  0  0  0
   -5.4600    2.1270   -8.2190 H   0  0  0  0  0  0  0  0  0  0  0  0
   -4.3760    2.2860   -6.3400 C   0  0  2  0  0  0  0  0  0  0  0  0
   -3.3700    1.9630   -6.0710 H   0  0  0  0  0  0  0  0  0  0  0  0
   -5.3740    1.4700   -5.5200 C   0  0  0  0  0  3  0  0  0  0  0  0
   -6.6090    1.7400   -5.5300 O   0  0  0  0  0  0  0  0  0  0  0  0
   -4.4620    3.8040   -5.9870 C   0  0  2  0  0  0  0  0  0  0  0  0
   -5.4400    4.1780   -6.2900 H   0  0  0  0  0  0  0  0  0  0  0  0
   -3.3750    4.5860   -6.7450 C   0  0  0  0  0  0  0  0  0  0  0  0
   -2.4260    4.4330   -6.2310 H   0  0  0  0  0  0  0  0  0  0  0  0
   -3.3090    4.1820   -7.7550 H   0  0  0  0  0  0  0  0  0  0  0  0
   -4.3050    4.0130   -4.4580 C   0  0  0  0  0  0  0  0  0  0  0  0
   -5.1000    3.4810   -3.9360 H   0  0  0  0  0  0  0  0  0  0  0  0
   -3.3370    3.6280   -4.1370 H   0  0  0  0  0  0  0  0  0  0  0  0
   -4.3670    5.0770   -4.2300 H   0  0  0  0  0  0  0  0  0  0  0  0
   -3.6210    6.0930   -6.8510 C   0  0  0  0  0  0  0  0  0  0  0  0
   -4.5590    6.2710   -7.3760 H   0  0  0  0  0  0  0  0  0  0  0  0
   -3.6760    6.5220   -5.8510 H   0  0  0  0  0  0  0  0  0  0  0  0
   -2.8020    6.5560   -7.4010 H   0  0  0  0  0  0  0  0  0  0  0  0
   -7.1030    4.9550  -11.2140 N   0  0  0  0  0  2  0  0  0  0  0  0
   -6.1220    4.6450  -11.0650 H   0  0  0  0  0  0  0  0  0  0  0  0
   -7.3690    6.3930  -11.2260 C   0  0  2  0  0  0  0  0  0  0  0  0
   -8.4260    6.5500  -11.4390 H   0  0  0  0  0  0  0  0  0  0  0  0
   -6.5510    7.1110  -12.3230 C   0  0  0  0  0  3  0  0  0  0  0  0
   -5.3670    6.8340  -12.4820 O   0  0  0  0  0  0  0  0  0  0  0  0
   -6.9990    6.9690   -9.8590 C   0  0  0  0  0  0  0  0  0  0  0  0
   -5.9460    6.7590   -9.6690 H   0  0  0  0  0  0  0  0  0  0  0  0
   -7.1550    8.0480   -9.8840 H   0  0  0  0  0  0  0  0  0  0  0  0
   -7.8100    6.3970   -8.7320 C   0  0  0  0  0  0  0  0  0  0  0  0
   -9.1120    6.7880   -8.4820 N   0  0  0  0  0  0  0  0  0  0  0  0
   -7.5200    5.4300   -7.8250 C   0  0  0  0  0  0  0  0  0  0  0  0
   -6.5730    4.9000   -7.7210 H   0  0  0  0  0  0  0  0  0  0  0  0
   -9.5840    6.0790   -7.4730 C   0  0  0  0  0  0  0  0  0  0  0  0
  -10.5840    6.1660   -7.0470 H   0  0  0  0  0  0  0  0  0  0  0  0
   -8.6430    5.2470   -7.0660 N   0  0  0  0  0  0  0  0  0  0  0  0
   -4.3430    9.9870  -13.8600 N   0  0  0  0  0  2  0  0  0  0  0  0
   -3.9430    9.2670  -14.4950 H   0  0  0  0  0  0  0  0  0  0  0  0
   -3.4660   11.0950  -13.4060 C   0  0  2  0  0  0  0  0  0  0  0  0
   -3.9980   11.6020  -12.6010 H   0  0  0  0  0  0  0  0  0  0  0  0
   -3.1980   12.0700  -14.5610 C   0  0  0  0  0  3  0  0  0  0  0  0
   -2.6940   11.6660  -15.6100 O   0  0  0  0  0  0  0  0  0  0  0  0
   -2.1230   10.5980  -12.8370 C   0  0  0  0  0  0  0  0  0  0  0  0
   -1.6160   10.0380  -13.6230 H   0  0  0  0  0  0  0  0  0  0  0  0
   -1.2160   11.7770  -12.4230 C   0  0  0  0  0  0  0  0  0  0  0  0
   -1.0140   12.4010  -13.2930 H   0  0  0  0  0  0  0  0  0  0  0  0
   -1.7190   12.3690  -11.6580 H   0  0  0  0  0  0  0  0  0  0  0  0
   -0.2780   11.3900  -12.0260 H   0  0  0  0  0  0  0  0  0  0  0  0
   -2.3600    9.6900  -11.6480 C   0  0  0  0  0  0  0  0  0  0  0  0
   -2.8940   10.2400  -10.8730 H   0  0  0  0  0  0  0  0  0  0  0  0
   -2.9540    8.8310  -11.9610 H   0  0  0  0  0  0  0  0  0  0  0  0
   -1.4020    9.3470  -11.2570 H   0  0  0  0  0  0  0  0  0  0  0  0
   10.6540   11.3050   -5.5760 N   0  0  0  0  0  2  0  0  0  0  0  0
   10.3920   12.2850   -5.8030 H   0  0  0  0  0  0  0  0  0  0  0  0
   10.0940   10.6720   -4.3490 C   0  0  2  0  0  0  0  0  0  0  0  0
   10.8680    9.9920   -3.9930 H   0  0  0  0  0  0  0  0  0  0  0  0
    8.8430    9.8410   -4.6350 C   0  0  0  0  0  0  0  0  0  0  0  0
    8.3760    9.1070   -3.7350 O   0  0  0  0  0  0  0  0  0  0  0  0
    9.8210   11.6790   -3.2540 C   0  0  0  0  0  0  0  0  0  0  0  0
   10.7510   12.1790   -2.9810 H   0  0  0  0  0  0  0  0  0  0  0  0
    9.1020   12.4160   -3.6110 H   0  0  0  0  0  0  0  0  0  0  0  0
    9.4140   11.1650   -2.3830 H   0  0  0  0  0  0  0  0  0  0  0  0
    8.3280    9.9240   -5.8760 N   0  0  0  0  0  0  0  0  0  0  0  0
    8.8050   10.5390   -6.5650 H   0  0  0  0  0  0  0  0  0  0  0  0
    7.1420    9.2010   -6.3060 C   0  0  2  0  0  0  0  0  0  0  0  0
    6.4000    9.3360   -5.5190 H   0  0  0  0  0  0  0  0  0  0  0  0
    7.4250    7.7530   -6.4980 C   0  0  0  0  0  0  0  0  0  0  0  0
    8.5700    7.2700   -6.4620 O   0  0  0  0  0  0  0  0  0  0  0  0
    6.6180    9.7450   -7.6390 C   0  0  0  0  0  0  0  0  0  0  0  0
    5.6190    9.3460   -7.8150 H   0  0  0  0  0  0  0  0  0  0  0  0
    7.2840    9.4210   -8.4390 H   0  0  0  0  0  0  0  0  0  0  0  0
    6.5530   11.1910   -7.6390 O   0  0  0  0  0  0  0  0  0  0  0  0
    6.2110   11.5050   -8.5140 H   0  0  0  0  0  0  0  0  0  0  0  0
    6.3550    7.0580   -6.8100 N   0  0  0  0  0  0  0  0  0  0  0  0
    5.4610    7.5640   -6.9720 H   0  0  0  0  0  0  0  0  0  0  0  0
    6.3700    5.6400   -6.9350 C   0  0  2  0  0  0  0  0  0  0  0  0
    7.1620    5.1570   -6.3640 H   0  0  0  0  0  0  0  0  0  0  0  0
    6.5790    5.3360   -8.4090 C   0  0  0  0  0  3  0  0  0  0  0  0
    6.0940    6.0730   -9.2600 O   0  0  0  0  0  0  0  0  0  0  0  0
    5.0220    5.1190   -6.4090 C   0  0  0  0  0  0  0  0  0  0  0  0
    4.2350    5.7010   -6.8870 H   0  0  0  0  0  0  0  0  0  0  0  0
    4.9330    4.0750   -6.7090 H   0  0  0  0  0  0  0  0  0  0  0  0
    4.7900    5.1880   -4.8740 C   0  0  0  0  0  0  0  0  0  0  0  0
    5.0100    6.2120   -4.5710 H   0  0  0  0  0  0  0  0  0  0  0  0
    3.3110    4.7880   -4.5700 C   0  0  0  0  0  0  0  0  0  0  0  0
    2.6380    5.4790   -5.0770 H   0  0  0  0  0  0  0  0  0  0  0  0
    3.1300    3.7740   -4.9260 H   0  0  0  0  0  0  0  0  0  0  0  0
    3.1370    4.8330   -3.4950 H   0  0  0  0  0  0  0  0  0  0  0  0
    5.7270    4.2640   -4.0560 C   0  0  0  0  0  0  0  0  0  0  0  0
    5.5710    3.2290   -4.3610 H   0  0  0  0  0  0  0  0  0  0  0  0
    6.7640    4.5460   -4.2400 H   0  0  0  0  0  0  0  0  0  0  0  0
    5.5030    4.3690   -2.9940 H   0  0  0  0  0  0  0  0  0  0  0  0
    5.3050    3.2970  -10.3550 N   0  0  0  0  0  2  0  0  0  0  0  0
    5.3190    3.2100   -9.3190 H   0  0  0  0  0  0  0  0  0  0  0  0
    4.1120    2.9140  -11.0930 C   0  0  2  0  0  0  0  0  0  0  0  0
    4.3770    2.2010  -11.8730 H   0  0  0  0  0  0  0  0  0  0  0  0
    3.5250    4.1710  -11.7290 C   0  0  0  0  0  0  0  0  0  0  0  0
    2.8290    4.0740  -12.7370 O   0  0  0  0  0  0  0  0  0  0  0  0
    3.0890    2.1810  -10.2000 C   0  0  0  0  0  0  0  0  0  0  0  0
    2.2390    1.8870  -10.8160 H   0  0  0  0  0  0  0  0  0  0  0  0
    3.5630    1.2900   -9.7890 H   0  0  0  0  0  0  0  0  0  0  0  0
    2.5850    3.0260   -9.0590 C   0  0  0  0  0  0  0  0  0  0  0  0
    3.2850    2.9380   -8.2280 H   0  0  0  0  0  0  0  0  0  0  0  0
    2.5440    4.0640   -9.3890 H   0  0  0  0  0  0  0  0  0  0  0  0
    1.2080    2.6210   -8.5730 C   0  0  0  0  0  0  0  0  0  0  0  0
    0.7530    3.4710   -8.0650 H   0  0  0  0  0  0  0  0  0  0  0  0
    0.6000    2.3470   -9.4350 H   0  0  0  0  0  0  0  0  0  0  0  0
    1.2480    1.4500   -7.6160 C   0  0  0  0  0  0  0  0  0  0  0  0
    2.1300    1.5540   -6.9850 H   0  0  0  0  0  0  0  0  0  0  0  0
    1.3270    0.5330   -8.2000 H   0  0  0  0  0  0  0  0  0  0  0  0
    0.0220    1.3380   -6.7120 N   0  0  0  0  0  4  0  0  0  0  0  0
   -0.0630    2.2000   -6.1370 H   0  0  0  0  0  0  0  0  0  0  0  0
   -0.8300    1.2250   -7.2980 H   0  0  0  0  0  0  0  0  0  0  0  0
    0.1270    0.5130   -6.0880 H   0  0  0  0  0  0  0  0  0  0  0  0
    3.8150    5.3320  -11.1570 N   0  0  0  0  0  0  0  0  0  0  0  0
    4.3440    5.3460  -10.2620 H   0  0  0  0  0  0  0  0  0  0  0  0
    3.4060    6.5700  -11.7600 C   0  0  2  0  0  0  0  0  0  0  0  0
    2.6010    6.3500  -12.4610 H   0  0  0  0  0  0  0  0  0  0  0  0
    4.5830    7.2000  -12.5340 C   0  0  0  0  0  3  0  0  0  0  0  0
    4.3900    7.6850  -13.6440 O   0  0  0  0  0  0  0  0  0  0  0  0
    2.8330    7.5740  -10.6990 C   0  0  0  0  0  0  0  0  0  0  0  0
    1.7520    7.4410  -10.6510 H   0  0  0  0  0  0  0  0  0  0  0  0
    3.2710    7.3350   -9.7300 H   0  0  0  0  0  0  0  0  0  0  0  0
    3.1220    9.0400  -11.0060 C   0  0  0  0  0  0  0  0  0  0  0  0
    2.4190    9.6990  -11.9770 C   0  0  0  0  0  0  0  0  0  0  0  0
    1.6340    9.1740  -12.5200 H   0  0  0  0  0  0  0  0  0  0  0  0
    4.1580    9.7400  -10.3510 C   0  0  0  0  0  0  0  0  0  0  0  0
    4.7460    9.2230   -9.5930 H   0  0  0  0  0  0  0  0  0  0  0  0
    2.7000   11.0760  -12.2930 C   0  0  0  0  0  0  0  0  0  0  0  0
    2.1060   11.5870  -13.0510 H   0  0  0  0  0  0  0  0  0  0  0  0
    4.4620   11.1120  -10.6520 C   0  0  0  0  0  0  0  0  0  0  0  0
    5.2550   11.6380  -10.1200 H   0  0  0  0  0  0  0  0  0  0  0  0
    3.7150   11.7570  -11.6450 C   0  0  0  0  0  0  0  0  0  0  0  0
    3.9630   13.0750  -12.0290 O   0  0  0  0  0  0  0  0  0  0  0  0
    3.3260   13.3360  -12.7410 H   0  0  0  0  0  0  0  0  0  0  0  0
   10.9780    6.3050   -4.9480 N   0  0  0  0  0  2  0  0  0  0  0  0
   10.1880    5.9880   -5.5450 H   0  0  0  0  0  0  0  0  0  0  0  0
   10.7200    6.5580   -3.5270 C   0  0  2  0  0  0  0  0  0  0  0  0
   10.9690    7.6020   -3.3390 H   0  0  0  0  0  0  0  0  0  0  0  0
   11.6250    5.7190   -2.6400 C   0  0  0  0  0  3  0  0  0  0  0  0
   12.2670    6.2920   -1.7970 O   0  0  0  0  0  0  0  0  0  0  0  0
    9.2040    6.4100   -3.1540 C   0  0  0  0  0  0  0  0  0  0  0  0
    8.6640    7.2090   -3.6620 H   0  0  0  0  0  0  0  0  0  0  0  0
    8.8680    5.4460   -3.5360 H   0  0  0  0  0  0  0  0  0  0  0  0
    8.8060    6.4750   -1.6050 C   0  0  0  0  0  0  0  0  0  0  0  0
    9.0730    5.5270   -1.1380 H   0  0  0  0  0  0  0  0  0  0  0  0
    9.3690    7.2810   -1.1350 H   0  0  0  0  0  0  0  0  0  0  0  0
    7.2710    6.7340   -1.3710 C   0  0  0  0  0  0  0  0  0  0  0  0
    6.9860    6.4380   -0.3620 H   0  0  0  0  0  0  0  0  0  0  0  0
    6.6770    6.1740   -2.0940 H   0  0  0  0  0  0  0  0  0  0  0  0
    7.0740    8.1750   -1.5550 N   0  0  0  0  0  0  0  0  0  0  0  0
    7.9010    8.7810   -1.3810 H   0  0  0  0  0  0  0  0  0  0  0  0
    5.9530    8.7950   -1.9200 C   0  0  0  0  0  0  0  0  0  0  0  0
    4.8300    8.1290   -2.1550 N   0  0  0  0  0  4  0  0  0  0  0  0
    4.8090    7.0940   -2.0560 H   0  0  0  0  0  0  0  0  0  0  0  0
    3.9710    8.6420   -2.4390 H   0  0  0  0  0  0  0  0  0  0  0  0
    5.9750   10.1110   -2.0680 N   0  0  0  0  0  0  0  0  0  0  0  0
    6.8550   10.6390   -1.9000 H   0  0  0  0  0  0  0  0  0  0  0  0
    5.1120   10.6170   -2.3520 H   0  0  0  0  0  0  0  0  0  0  0  0
   11.6800   13.6970    2.1500 N   0  0  0  0  0  2  0  0  0  0  0  0
   11.0060   14.3750    1.7400 H   0  0  0  0  0  0  0  0  0  0  0  0
   12.3750   12.7460    1.2760 C   0  0  2  0  0  0  0  0  0  0  0  0
   12.5890   11.8420    1.8460 H   0  0  0  0  0  0  0  0  0  0  0  0
   13.6730   13.4000    0.7880 C   0  0  0  0  0  3  0  0  0  0  0  0
   13.6690   14.3550    0.0170 O   0  0  0  0  0  0  0  0  0  0  0  0
   11.5200   12.3200    0.0890 C   0  0  0  0  0  0  0  0  0  0  0  0
   11.3570   13.1990   -0.5350 H   0  0  0  0  0  0  0  0  0  0  0  0
   12.0810   11.5750   -0.4740 H   0  0  0  0  0  0  0  0  0  0  0  0
   10.1640   11.7270    0.4160 C   0  0  0  0  0  0  0  0  0  0  0  0
   10.0310   10.3500    0.7370 C   0  0  0  0  0  0  0  0  0  0  0  0
   10.9170    9.7150    0.7680 H   0  0  0  0  0  0  0  0  0  0  0  0
    9.0060   12.5450    0.3790 C   0  0  0  0  0  0  0  0  0  0  0  0
    9.1020   13.6000    0.1210 H   0  0  0  0  0  0  0  0  0  0  0  0
    8.7740    9.8000    1.0140 C   0  0  0  0  0  0  0  0  0  0  0  0
    8.6750    8.7420    1.2580 H   0  0  0  0  0  0  0  0  0  0  0  0
    7.7410   12.0170    0.6690 C   0  0  0  0  0  0  0  0  0  0  0  0
    6.8570   12.6550    0.6610 H   0  0  0  0  0  0  0  0  0  0  0  0
    7.6340   10.6360    0.9730 C   0  0  0  0  0  0  0  0  0  0  0  0
    6.3730   10.1120    1.2340 O   0  0  0  0  0  0  0  0  0  0  0  0
    6.4530    9.1450    1.4290 H   0  0  0  0  0  0  0  0  0  0  0  0
    6.8140   13.4770   -8.2220 H   0  0  0  0  0  0  0  0  0  0  0  0
   -8.7350    4.5970   -6.3320 H   0  0  0  0  0  0  0  0  0  0  0  0
  1  2  1  0
  1  3  1  0
  3  4  1  6
  3  5  1  0
  3  7  1  0
  5  6  2  0
  7  8  1  0
  7  9  1  0
  7 10  1  0
 10 11  2  0
 10 12  1  0
 12250  1  0
 13 14  1  0
 13 15  1  0
 15 16  1  6
 15 17  1  0
 15 19  1  0
 17 18  2  0
 17 24  1  0
 19 20  1  0
 19 21  1  0
 19 22  1  0
 22 23  1  0
 24 25  1  0
 24 26  1  0
 26 27  1  1
 26 28  1  0
 26 30  1  0
 28 29  2  0
 28 35  1  0
 30 31  1  0
 30 32  1  0
 30 33  1  0
 33 34  1  0
 35 36  1  0
 35 37  1  0
 37 38  1  6
 37 39  1  0
 37 41  1  0
 39 40  2  0
 41 42  1  0
 41 43  1  0
 41 44  1  0
 44 45  2  0
 44 47  1  0
 45 46  1  0
 45 49  1  0
 47 48  1  0
 47 51  2  0
 49 50  1  0
 49 53  2  0
 51 52  1  0
 51 53  1  0
 53 54  1  0
 55 56  1  0
 55 57  1  0
 57 58  1  6
 57 59  1  0
 57 61  1  0
 59 60  2  0
 61 62  1  0
 61 63  1  0
 61 67  1  0
 63 64  1  0
 63 65  1  0
 63 66  1  0
 67 68  1  0
 67 69  1  0
 67 70  1  0
 71 72  1  0
 71 73  1  0
 73 74  1  1
 73 75  1  0
 73 77  1  0
 75 76  2  0
 77 78  1  6
 77 79  1  0
 77 82  1  0
 79 80  1  0
 79 81  1  0
 79 86  1  0
 82 83  1  0
 82 84  1  0
 82 85  1  0
 86 87  1  0
 86 88  1  0
 86 89  1  0
 90 91  1  0
 90 92  1  0
 92 93  1  6
 92 94  1  0
 92 96  1  0
 94 95  2  0
 96 97  1  0
 96 98  1  0
 96 99  1  0
 99100  1  0
 99101  2  0
100103  2  0
101102  1  0
101105  1  0
103104  1  0
103105  1  0
105251  1  0
106107  1  0
106108  1  0
108109  1  1
108110  1  0
108112  1  0
110111  2  0
112113  1  0
112114  1  0
112118  1  0
114115  1  0
114116  1  0
114117  1  0
118119  1  0
118120  1  0
118121  1  0
122123  1  0
122124  1  0
124125  1  1
124126  1  0
124128  1  0
126127  2  0
126132  1  0
128129  1  0
128130  1  0
128131  1  0
132133  1  0
132134  1  0
134135  1  1
134136  1  0
134138  1  0
136137  2  0
136143  1  0
138139  1  0
138140  1  0
138141  1  0
141142  1  0
143144  1  0
143145  1  0
145146  1  1
145147  1  0
145149  1  0
147148  2  0
149150  1  0
149151  1  0
149152  1  0
152153  1  0
152154  1  0
152158  1  0
154155  1  0
154156  1  0
154157  1  0
158159  1  0
158160  1  0
158161  1  0
162163  1  0
162164  1  0
164165  1  6
164166  1  0
164168  1  0
166167  2  0
166184  1  0
168169  1  0
168170  1  0
168171  1  0
171172  1  0
171173  1  0
171174  1  0
174175  1  0
174176  1  0
174177  1  0
177178  1  0
177179  1  0
177180  1  0
180181  1  0
180182  1  0
180183  1  0
184185  1  0
184186  1  0
186187  1  6
186188  1  0
186190  1  0
188189  2  0
190191  1  0
190192  1  0
190193  1  0
193194  2  0
193196  1  0
194195  1  0
194198  1  0
196197  1  0
196200  2  0
198199  1  0
198202  2  0
200201  1  0
200202  1  0
202203  1  0
203204  1  0
205206  1  0
205207  1  0
207208  1  6
207209  1  0
207211  1  0
209210  2  0
211212  1  0
211213  1  0
211214  1  0
214215  1  0
214216  1  0
214217  1  0
217218  1  0
217219  1  0
217220  1  0
220221  1  0
220222  1  0
222223  2  0
222226  1  0
223224  1  0
223225  1  0
226227  1  0
226228  1  0
229230  1  0
229231  1  0
231232  1  1
231233  1  0
231235  1  0
233234  2  0
235236  1  0
235237  1  0
235238  1  0
238239  2  0
238241  1  0
239240  1  0
239243  1  0
241242  1  0
241245  2  0
243244  1  0
243247  2  0
245246  1  0
245247  1  0
247248  1  0
248249  1  0
M  RAD  8   1   2   5   2  13   2  39   2  55   2  59   2  71   2  75   2
M  RAD  8  90   2  94   2 106   2 110   2 122   2 147   2 162   2 188   2
M  CHG  2 180   1 223   1
M  RAD  4 205   2 209   2 229   2 233   2
M  END
$$$$

     RDKit          3D

251245  0  0  0  0  0  0  0  0999 V2000
    8.2390   15.7430  -10.2460 N   0  0  0  0  0  2  0  0  0  0  0  0
    8.4060   14.8450   -9.7480 H   0  0  0  0  0  0  0  0  0  0  0  0
    7.1270   16.5820   -9.8330 C   0  0  2  0  0  0  0  0  0  0  0  0
    6.5240   16.7530  -10.7240 H   0  0  0  0  0  0  0  0  0  0  0  0
    7.5010   17.9630   -9.3590 C   0  0  0  0  0  3  0  0  0  0  0  0
    8.3130   18.1090   -8.4540 O   0  0  0  0  0  0  0  0  0  0  0  0
    6.3630   15.8620   -8.7680 C   0  0  0  0  0  0  0  0  0  0  0  0
    7.0440   15.5910   -7.9610 H   0  0  0  0  0  0  0  0  0  0  0  0
    5.5850   16.5200   -8.3800 H   0  0  0  0  0  0  0  0  0  0  0  0
    5.7360   14.6350   -9.3040 C   0  0  0  0  0  0  0  0  0  0  0  0
    4.8520   14.7920  -10.1880 O   0  0  0  0  0  0  0  0  0  0  0  0
    6.1520   13.5130   -8.8840 O   0  0  0  0  0  0  0  0  0  0  0  0
    1.6580   16.8130  -11.9920 N   0  0  0  0  0  2  0  0  0  0  0  0
    2.3630   16.6600  -11.2430 H   0  0  0  0  0  0  0  0  0  0  0  0
    0.5750   15.8710  -12.1280 C   0  0  2  0  0  0  0  0  0  0  0  0
    0.1290   15.9910  -13.1150 H   0  0  0  0  0  0  0  0  0  0  0  0
   -0.5220   16.1130  -11.1130 C   0  0  0  0  0  0  0  0  0  0  0  0
   -0.2990   16.7340  -10.0760 O   0  0  0  0  0  0  0  0  0  0  0  0
    1.1300   14.4960  -11.9520 C   0  0  0  0  0  0  0  0  0  0  0  0
    0.3140   13.7740  -11.9180 H   0  0  0  0  0  0  0  0  0  0  0  0
    1.6970   14.4460  -11.0220 H   0  0  0  0  0  0  0  0  0  0  0  0
    1.9940   14.1960  -13.0610 O   0  0  0  0  0  0  0  0  0  0  0  0
    2.3660   13.2850  -12.9510 H   0  0  0  0  0  0  0  0  0  0  0  0
   -1.7070   15.5990  -11.3820 N   0  0  0  0  0  0  0  0  0  0  0  0
   -1.8300   15.0390  -12.2500 H   0  0  0  0  0  0  0  0  0  0  0  0
   -2.8500   15.7940  -10.4960 C   0  0  2  0  0  0  0  0  0  0  0  0
   -2.4940   15.6940   -9.4710 H   0  0  0  0  0  0  0  0  0  0  0  0
   -3.9360   14.7420  -10.7100 C   0  0  0  0  0  0  0  0  0  0  0  0
   -4.1170   14.2150  -11.8220 O   0  0  0  0  0  0  0  0  0  0  0  0
   -3.4310   17.1680  -10.7260 C   0  0  0  0  0  0  0  0  0  0  0  0
   -3.6970   17.2780  -11.7770 H   0  0  0  0  0  0  0  0  0  0  0  0
   -2.6920   17.9230  -10.4590 H   0  0  0  0  0  0  0  0  0  0  0  0
   -4.5930   17.3400   -9.9250 O   0  0  0  0  0  0  0  0  0  0  0  0
   -4.9690   18.2430  -10.0800 H   0  0  0  0  0  0  0  0  0  0  0  0
   -4.6520   14.4140   -9.6350 N   0  0  0  0  0  0  0  0  0  0  0  0
   -4.3590   14.7920   -8.7110 H   0  0  0  0  0  0  0  0  0  0  0  0
   -5.8320   13.5460   -9.6910 C   0  0  2  0  0  0  0  0  0  0  0  0
   -5.6450   12.7780  -10.4420 H   0  0  0  0  0  0  0  0  0  0  0  0
   -7.0770   14.3290  -10.1220 C   0  0  0  0  0  3  0  0  0  0  0  0
   -8.0250   13.7390  -10.5890 O   0  0  0  0  0  0  0  0  0  0  0  0
   -6.0610   12.8570   -8.3570 C   0  0  0  0  0  0  0  0  0  0  0  0
   -5.9730   13.6020   -7.5670 H   0  0  0  0  0  0  0  0  0  0  0  0
   -7.0700   12.4440   -8.3540 H   0  0  0  0  0  0  0  0  0  0  0  0
   -5.0730   11.7210   -8.0610 C   0  0  0  0  0  0  0  0  0  0  0  0
   -4.0720   11.8810   -7.1020 C   0  0  0  0  0  0  0  0  0  0  0  0
   -3.9860   12.8270   -6.5670 H   0  0  0  0  0  0  0  0  0  0  0  0
   -5.1740   10.4980   -8.7080 C   0  0  0  0  0  0  0  0  0  0  0  0
   -5.9560   10.3530   -9.4530 H   0  0  0  0  0  0  0  0  0  0  0  0
   -3.1820   10.8480   -6.8190 C   0  0  0  0  0  0  0  0  0  0  0  0
   -2.4060   10.9870   -6.0660 H   0  0  0  0  0  0  0  0  0  0  0  0
   -4.2920    9.4420   -8.4250 C   0  0  0  0  0  0  0  0  0  0  0  0
   -4.4060    8.4830   -8.9310 H   0  0  0  0  0  0  0  0  0  0  0  0
   -3.2860    9.6220   -7.5080 C   0  0  0  0  0  0  0  0  0  0  0  0
   -2.5720    8.8220   -7.3140 H   0  0  0  0  0  0  0  0  0  0  0  0
   -3.3140    5.0230  -13.0570 N   0  0  0  0  0  2  0  0  0  0  0  0
   -4.1400    5.6150  -12.8370 H   0  0  0  0  0  0  0  0  0  0  0  0
   -2.5170    4.4610  -11.9940 C   0  0  2  0  0  0  0  0  0  0  0  0
   -1.7250    3.8470  -12.4230 H   0  0  0  0  0  0  0  0  0  0  0  0
   -3.4380    3.6400  -11.1070 C   0  0  0  0  0  3  0  0  0  0  0  0
   -4.4710    4.1900  -10.6370 O   0  0  0  0  0  0  0  0  0  0  0  0
   -1.8540    5.5840  -11.1350 C   0  0  0  0  0  0  0  0  0  0  0  0
   -2.6490    6.2450  -10.7900 H   0  0  0  0  0  0  0  0  0  0  0  0
   -1.1450    4.9970   -9.9330 C   0  0  0  0  0  0  0  0  0  0  0  0
   -1.8650    4.4610   -9.3150 H   0  0  0  0  0  0  0  0  0  0  0  0
   -0.3700    4.3090  -10.2700 H   0  0  0  0  0  0  0  0  0  0  0  0
   -0.6920    5.8000   -9.3520 H   0  0  0  0  0  0  0  0  0  0  0  0
   -0.8790    6.3820  -11.9530 C   0  0  0  0  0  0  0  0  0  0  0  0
   -0.0980    5.7220  -12.3300 H   0  0  0  0  0  0  0  0  0  0  0  0
   -1.4020    6.8440  -12.7900 H   0  0  0  0  0  0  0  0  0  0  0  0
   -0.4320    7.1570  -11.3300 H   0  0  0  0  0  0  0  0  0  0  0  0
   -4.5210    2.0210   -7.7850 N   0  0  0  0  0  2  0  0  0  0  0  0
   -5.4600    2.1270   -8.2190 H   0  0  0  0  0  0  0  0  0  0  0  0
   -4.3760    2.2860   -6.3400 C   0  0  2  0  0  0  0  0  0  0  0  0
   -3.3700    1.9630   -6.0710 H   0  0  0  0  0  0  0  0  0  0  0  0
   -5.3740    1.4700   -5.5200 C   0  0  0  0  0  3  0  0  0  0  0  0
   -6.6090    1.7400   -5.5300 O   0  0  0  0  0  0  0  0  0  0  0  0
   -4.4620    3.8040   -5.9870 C   0  0  2  0  0  0  0  0  0  0  0  0
   -5.4400    4.1780   -6.2900 H   0  0  0  0  0  0  0  0  0  0  0  0
   -3.3750    4.5860   -6.7450 C   0  0  0  0  0  0  0  0  0  0  0  0
   -2.4260    4.4330   -6.2310 H   0  0  0  0  0  0  0  0  0  0  0  0
   -3.3090    4.1820   -7.7550 H   0  0  0  0  0  0  0  0  0  0  0  0
   -4.3050    4.0130   -4.4580 C   0  0  0  0  0  0  0  0  0  0  0  0
   -5.1000    3.4810   -3.9360 H   0  0  0  0  0  0  0  0  0  0  0  0
   -3.3370    3.6280   -4.1370 H   0  0  0  0  0  0  0  0  0  0  0  0
   -4.3670    5.0770   -4.2300 H   0  0  0  0  0  0  0  0  0  0  0  0
   -3.6210    6.0930   -6.8510 C   0  0  0  0  0  0  0  0  0  0  0  0
   -4.5590    6.2710   -7.3760 H   0  0  0  0  0  0  0  0  0  0  0  0
   -3.6760    6.5220   -5.8510 H   0  0  0  0  0  0  0  0  0  0  0  0
   -2.8020    6.5560   -7.4010 H   0  0  0  0  0  0  0  0  0  0  0  0
   -7.1030    4.9550  -11.2140 N   0  0  0  0  0  2  0  0  0  0  0  0
   -6.1220    4.6450  -11.0650 H   0  0  0  0  0  0  0  0  0  0  0  0
   -7.3690    6.3930  -11.2260 C   0  0  2  0  0  0  0  0  0  0  0  0
   -8.4260    6.5500  -11.4390 H   0  0  0  0  0  0  0  0  0  0  0  0
   -6.5510    7.1110  -12.3230 C   0  0  0  0  0  3  0  0  0  0  0  0
   -5.3670    6.8340  -12.4820 O   0  0  0  0  0  0  0  0  0  0  0  0
   -6.9990    6.9690   -9.8590 C   0  0  0  0  0  0  0  0  0  0  0  0
   -5.9460    6.7590   -9.6690 H   0  0  0  0  0  0  0  0  0  0  0  0
   -7.1550    8.0480   -9.8840 H   0  0  0  0  0  0  0  0  0  0  0  0
   -7.8100    6.3970   -8.7320 C   0  0  0  0  0  0  0  0  0  0  0  0
   -9.1120    6.7880   -8.4820 N   0  0  0  0  0  0  0  0  0  0  0  0
   -7.5200    5.4300   -7.8250 C   0  0  0  0  0  0  0  0  0  0  0  0
   -6.5730    4.9000   -7.7210 H   0  0  0  0  0  0  0  0  0  0  0  0
   -9.5840    6.0790   -7.4730 C   0  0  0  0  0  0  0  0  0  0  0  0
  -10.5840    6.1660   -7.0470 H   0  0  0  0  0  0  0  0  0  0  0  0
   -8.6430    5.2470   -7.0660 N   0  0  0  0  0  0  0  0  0  0  0  0
   -4.3430    9.9870  -13.8600 N   0  0  0  0  0  2  0  0  0  0  0  0
   -3.9430    9.2670  -14.4950 H   0  0  0  0  0  0  0  0  0  0  0  0
   -3.4660   11.0950  -13.4060 C   0  0  2  0  0  0  0  0  0  0  0  0
   -3.9980   11.6020  -12.6010 H   0  0  0  0  0  0  0  0  0  0  0  0
   -3.1980   12.0700  -14.5610 C   0  0  0  0  0  3  0  0  0  0  0  0
   -2.6940   11.6660  -15.6100 O   0  0  0  0  0  0  0  0  0  0  0  0
   -2.1230   10.5980  -12.8370 C   0  0  0  0  0  0  0  0  0  0  0  0
   -1.6160   10.0380  -13.6230 H   0  0  0  0  0  0  0  0  0  0  0  0
   -1.2160   11.7770  -12.4230 C   0  0  0  0  0  0  0  0  0  0  0  0
   -1.0140   12.4010  -13.2930 H   0  0  0  0  0  0  0  0  0  0  0  0
   -1.7190   12.3690  -11.6580 H   0  0  0  0  0  0  0  0  0  0  0  0
   -0.2780   11.3900  -12.0260 H   0  0  0  0  0  0  0  0  0  0  0  0
   -2.3600    9.6900  -11.6480 C   0  0  0  0  0  0  0  0  0  0  0  0
   -2.8940   10.2400  -10.8730 H   0  0  0  0  0  0  0  0  0  0  0  0
   -2.9540    8.8310  -11.9610 H   0  0  0  0  0  0  0  0  0  0  0  0
   -1.4020    9.3470  -11.2570 H   0  0  0  0  0  0  0  0  0  0  0  0
   10.6540   11.3050   -5.5760 N   0  0  0  0  0  2  0  0  0  0  0  0
   10.3920   12.2850   -5.8030 H   0  0  0  0  0  0  0  0  0  0  0  0
   10.0940   10.6720   -4.3490 C   0  0  2  0  0  0  0  0  0  0  0  0
   10.8680    9.9920   -3.9930 H   0  0  0  0  0  0  0  0  0  0  0  0
    8.8430    9.8410   -4.6350 C   0  0  0  0  0  0  0  0  0  0  0  0
    8.3760    9.1070   -3.7350 O   0  0  0  0  0  0  0  0  0  0  0  0
    9.8210   11.6790   -3.2540 C   0  0  0  0  0  0  0  0  0  0  0  0
   10.7510   12.1790   -2.9810 H   0  0  0  0  0  0  0  0  0  0  0  0
    9.1020   12.4160   -3.6110 H   0  0  0  0  0  0  0  0  0  0  0  0
    9.4140   11.1650   -2.3830 H   0  0  0  0  0  0  0  0  0  0  0  0
    8.3280    9.9240   -5.8760 N   0  0  0  0  0  0  0  0  0  0  0  0
    8.8050   10.5390   -6.5650 H   0  0  0  0  0  0  0  0  0  0  0  0
    7.1420    9.2010   -6.3060 C   0  0  2  0  0  0  0  0  0  0  0  0
    6.4000    9.3360   -5.5190 H   0  0  0  0  0  0  0  0  0  0  0  0
    7.4250    7.7530   -6.4980 C   0  0  0  0  0  0  0  0  0  0  0  0
    8.5700    7.2700   -6.4620 O   0  0  0  0  0  0  0  0  0  0  0  0
    6.6180    9.7450   -7.6390 C   0  0  0  0  0  0  0  0  0  0  0  0
    5.6190    9.3460   -7.8150 H   0  0  0  0  0  0  0  0  0  0  0  0
    7.2840    9.4210   -8.4390 H   0  0  0  0  0  0  0  0  0  0  0  0
    6.5530   11.1910   -7.6390 O   0  0  0  0  0  0  0  0  0  0  0  0
    6.2110   11.5050   -8.5140 H   0  0  0  0  0  0  0  0  0  0  0  0
    6.3550    7.0580   -6.8100 N   0  0  0  0  0  0  0  0  0  0  0  0
    5.4610    7.5640   -6.9720 H   0  0  0  0  0  0  0  0  0  0  0  0
    6.3700    5.6400   -6.9350 C   0  0  2  0  0  0  0  0  0  0  0  0
    7.1620    5.1570   -6.3640 H   0  0  0  0  0  0  0  0  0  0  0  0
    6.5790    5.3360   -8.4090 C   0  0  0  0  0  3  0  0  0  0  0  0
    6.0940    6.0730   -9.2600 O   0  0  0  0  0  0  0  0  0  0  0  0
    5.0220    5.1190   -6.4090 C   0  0  0  0  0  0  0  0  0  0  0  0
    4.2350    5.7010   -6.8870 H   0  0  0  0  0  0  0  0  0  0  0  0
    4.9330    4.0750   -6.7090 H   0  0  0  0  0  0  0  0  0  0  0  0
    4.7900    5.1880   -4.8740 C   0  0  0  0  0  0  0  0  0  0  0  0
    5.0100    6.2120   -4.5710 H   0  0  0  0  0  0  0  0  0  0  0  0
    3.3110    4.7880   -4.5700 C   0  0  0  0  0  0  0  0  0  0  0  0
    2.6380    5.4790   -5.0770 H   0  0  0  0  0  0  0  0  0  0  0  0
    3.1300    3.7740   -4.9260 H   0  0  0  0  0  0  0  0  0  0  0  0
    3.1370    4.8330   -3.4950 H   0  0  0  0  0  0  0  0  0  0  0  0
    5.7270    4.2640   -4.0560 C   0  0  0  0  0  0  0  0  0  0  0  0
    5.5710    3.2290   -4.3610 H   0  0  0  0  0  0  0  0  0  0  0  0
    6.7640    4.5460   -4.2400 H   0  0  0  0  0  0  0  0  0  0  0  0
    5.5030    4.3690   -2.9940 H   0  0  0  0  0  0  0  0  0  0  0  0
    5.3050    3.2970  -10.3550 N   0  0  0  0  0  2  0  0  0  0  0  0
    5.3190    3.2100   -9.3190 H   0  0  0  0  0  0  0  0  0  0  0  0
    4.1120    2.9140  -11.0930 C   0  0  2  0  0  0  0  0  0  0  0  0
    4.3770    2.2010  -11.8730 H   0  0  0  0  0  0  0  0  0  0  0  0
    3.5250    4.1710  -11.7290 C   0  0  0  0  0  0  0  0  0  0  0  0
    2.8290    4.0740  -12.7370 O   0  0  0  0  0  0  0  0  0  0  0  0
    3.0890    2.1810  -10.2000 C   0  0  0  0  0  0  0  0  0  0  0  0
    2.2390    1.8870  -10.8160 H   0  0  0  0  0  0  0  0  0  0  0  0
    3.5630    1.2900   -9.7890 H   0  0  0  0  0  0  0  0  0  0  0  0
    2.5850    3.0260   -9.0590 C   0  0  0  0  0  0  0  0  0  0  0  0
    3.2850    2.9380   -8.2280 H   0  0  0  0  0  0  0  0  0  0  0  0
    2.5440    4.0640   -9.3890 H   0  0  0  0  0  0  0  0  0  0  0  0
    1.2080    2.6210   -8.5730 C   0  0  0  0  0  0  0  0  0  0  0  0
    0.7530    3.4710   -8.0650 H   0  0  0  0  0  0  0  0  0  0  0  0
    0.6000    2.3470   -9.4350 H   0  0  0  0  0  0  0  0  0  0  0  0
    1.2480    1.4500   -7.6160 C   0  0  0  0  0  0  0  0  0  0  0  0
    2.1300    1.5540   -6.9850 H   0  0  0  0  0  0  0  0  0  0  0  0
    1.3270    0.5330   -8.2000 H   0  0  0  0  0  0  0  0  0  0  0  0
    0.0220    1.3380   -6.7120 N   0  0  0  0  0  4  0  0  0  0  0  0
   -0.0630    2.2000   -6.1370 H   0  0  0  0  0  0  0  0  0  0  0  0
   -0.8300    1.2250   -7.2980 H   0  0  0  0  0  0  0  0  0  0  0  0
    0.1270    0.5130   -6.0880 H   0  0  0  0  0  0  0  0  0  0  0  0
    3.8150    5.3320  -11.1570 N   0  0  0  0  0  0  0  0  0  0  0  0
    4.3440    5.3460  -10.2620 H   0  0  0  0  0  0  0  0  0  0  0  0
    3.4060    6.5700  -11.7600 C   0  0  2  0  0  0  0  0  0  0  0  0
    2.6010    6.3500  -12.4610 H   0  0  0  0  0  0  0  0  0  0  0  0
    4.5830    7.2000  -12.5340 C   0  0  0  0  0  3  0  0  0  0  0  0
    4.3900    7.6850  -13.6440 O   0  0  0  0  0  0  0  0  0  0  0  0
    2.8330    7.5740  -10.6990 C   0  0  0  0  0  0  0  0  0  0  0  0
    1.7520    7.4410  -10.6510 H   0  0  0  0  0  0  0  0  0  0  0  0
    3.2710    7.3350   -9.7300 H   0  0  0  0  0  0  0  0  0  0  0  0
    3.1220    9.0400  -11.0060 C   0  0  0  0  0  0  0  0  0  0  0  0
    2.4190    9.6990  -11.9770 C   0  0  0  0  0  0  0  0  0  0  0  0
    1.6340    9.1740  -12.5200 H   0  0  0  0  0  0  0  0  0  0  0  0
    4.1580    9.7400  -10.3510 C   0  0  0  0  0  0  0  0  0  0  0  0
    4.7460    9.2230   -9.5930 H   0  0  0  0  0  0  0  0  0  0  0  0
    2.7000   11.0760  -12.2930 C   0  0  0  0  0  0  0  0  0  0  0  0
    2.1060   11.5870  -13.0510 H   0  0  0  0  0  0  0  0  0  0  0  0
    4.4620   11.1120  -10.6520 C   0  0  0  0  0  0  0  0  0  0  0  0
    5.2550   11.6380  -10.1200 H   0  0  0  0  0  0  0  0  0  0  0  0
    3.7150   11.7570  -11.6450 C   0  0  0  0  0  0  0  0  0  0  0  0
    3.9630   13.0750  -12.0290 O   0  0  0  0  0  0  0  0  0  0  0  0
    3.3260   13.3360  -12.7410 H   0  0  0  0  0  0  0  0  0  0  0  0
   10.9780    6.3050   -4.9480 N   0  0  0  0  0  2  0  0  0  0  0  0
   10.1880    5.9880   -5.5450 H   0  0  0  0  0  0  0  0  0  0  0  0
   10.7200    6.5580   -3.5270 C   0  0  2  0  0  0  0  0  0  0  0  0
   10.9690    7.6020   -3.3390 H   0  0  0  0  0  0  0  0  0  0  0  0
   11.6250    5.7190   -2.6400 C   0  0  0  0  0  3  0  0  0  0  0  0
   12.2670    6.2920   -1.7970 O   0  0  0  0  0  0  0  0  0  0  0  0
    9.2040    6.4100   -3.1540 C   0  0  0  0  0  0  0  0  0  0  0  0
    8.6640    7.2090   -3.6620 H   0  0  0  0  0  0  0  0  0  0  0  0
    8.8680    5.4460   -3.5360 H   0  0  0  0  0  0  0  0  0  0  0  0
    8.8060    6.4750   -1.6050 C   0  0  0  0  0  0  0  0  0  0  0  0
    9.0730    5.5270   -1.1380 H   0  0  0  0  0  0  0  0  0  0  0  0
    9.3690    7.2810   -1.1350 H   0  0  0  0  0  0  0  0  0  0  0  0
    7.2710    6.7340   -1.3710 C   0  0  0  0  0  0  0  0  0  0  0  0
    6.9860    6.4380   -0.3620 H   0  0  0  0  0  0  0  0  0  0  0  0
    6.6770    6.1740   -2.0940 H   0  0  0  0  0  0  0  0  0  0  0  0
    7.0740    8.1750   -1.5550 N   0  0  0  0  0  0  0  0  0  0  0  0
    7.9010    8.7810   -1.3810 H   0  0  0  0  0  0  0  0  0  0  0  0
    5.9530    8.7950   -1.9200 C   0  0  0  0  0  0  0  0  0  0  0  0
    4.8300    8.1290   -2.1550 N   0  0  0  0  0  4  0  0  0  0  0  0
    4.8090    7.0940   -2.0560 H   0  0  0  0  0  0  0  0  0  0  0  0
    3.9710    8.6420   -2.4390 H   0  0  0  0  0  0  0  0  0  0  0  0
    5.9750   10.1110   -2.0680 N   0  0  0  0  0  0  0  0  0  0  0  0
    6.8550   10.6390   -1.9000 H   0  0  0  0  0  0  0  0  0  0  0  0
    5.1120   10.6170   -2.3520 H   0  0  0  0  0  0  0  0  0  0  0  0
   11.6800   13.6970    2.1500 N   0  0  0  0  0  2  0  0  0  0  0  0
   11.0060   14.3750    1.7400 H   0  0  0  0  0  0  0  0  0  0  0  0
   12.3750   12.7460    1.2760 C   0  0  2  0  0  0  0  0  0  0  0  0
   12.5890   11.8420    1.8460 H   0  0  0  0  0  0  0  0  0  0  0  0
   13.6730   13.4000    0.7880 C   0  0  0  0  0  3  0  0  0  0  0  0
   13.6690   14.3550    0.0170 O   0  0  0  0  0  0  0  0  0  0  0  0
   11.5200   12.3200    0.0890 C   0  0  0  0  0  0  0  0  0  0  0  0
   11.3570   13.1990   -0.5350 H   0  0  0  0  0  0  0  0  0  0  0  0
   12.0810   11.5750   -0.4740 H   0  0  0  0  0  0  0  0  0  0  0  0
   10.1640   11.7270    0.4160 C   0  0  0  0  0  0  0  0  0  0  0  0
   10.0310   10.3500    0.7370 C   0  0  0  0  0  0  0  0  0  0  0  0
   10.9170    9.7150    0.7680 H   0  0  0  0  0  0  0  0  0  0  0  0
    9.0060   12.5450    0.3790 C   0  0  0  0  0  0  0  0  0  0  0  0
    9.1020   13.6000    0.1210 H   0  0  0  0  0  0  0  0  0  0  0  0
    8.7740    9.8000    1.0140 C   0  0  0  0  0  0  0  0  0  0  0  0
    8.6750    8.7420    1.2580 H   0  0  0  0  0  0  0  0  0  0  0  0
    7.7410   12.0170    0.6690 C   0  0  0  0  0  0  0  0  0  0  0  0
    6.8570   12.6550    0.6610 H   0  0  0  0  0  0  0  0  0  0  0  0
    7.6340   10.6360    0.9730 C   0  0  0  0  0  0  0  0  0  0  0  0
    6.3730   10.1120    1.2340 O   0  0  0  0  0  0  0  0  0  0  0  0
    6.4530    9.1450    1.4290 H   0  0  0  0  0  0  0  0  0  0  0  0
    6.8140   13.4770   -8.2220 H   0  0  0  0  0  0  0  0  0  0  0  0
   -8.7350    4.5970   -6.3320 H   0  0  0  0  0  0  0  0  0  0  0  0
  1  2  1  0
  1  3  1  0
  3  4  1  6
  3  5  1  0
  3  7  1  0
  5  6  2  0
  7  8  1  0
  7  9  1  0
  7 10  1  0
 10 11  2  0
 10 12  1  0
 12250  1  0
 13 14  1  0
 13 15  1  0
 15 16  1  6
 15 17  1  0
 15 19  1  0
 17 18  2  0
 17 24  1  0
 19 20  1  0
 19 21  1  0
 19 22  1  0
 22 23  1  0
 24 25  1  0
 24 26  1  0
 26 27  1  1
 26 28  1  0
 26 30  1  0
 28 29  2  0
 28 35  1  0
 30 31  1  0
 30 32  1  0
 30 33  1  0
 33 34  1  0
 35 36  1  0
 35 37  1  0
 37 38  1  6
 37 39  1  0
 37 41  1  0
 39 40  2  0
 41 42  1  0
 41 43  1  0
 41 44  1  0
 44 45  2  0
 44 47  1  0
 45 46  1  0
 45 49  1  0
 47 48  1  0
 47 51  2  0
 49 50  1  0
 49 53  2  0
 51 52  1  0
 51 53  1  0
 53 54  1  0
 55 56  1  0
 55 57  1  0
 57 58  1  6
 57 59  1  0
 57 61  1  0
 59 60  2  0
 61 62  1  0
 61 63  1  0
 61 67  1  0
 63 64  1  0
 63 65  1  0
 63 66  1  0
 67 68  1  0
 67 69  1  0
 67 70  1  0
 71 72  1  0
 71 73  1  0
 73 74  1  1
 73 75  1  0
 73 77  1  0
 75 76  2  0
 77 78  1  6
 77 79  1  0
 77 82  1  0
 79 80  1  0
 79 81  1  0
 79 86  1  0
 82 83  1  0
 82 84  1  0
 82 85  1  0
 86 87  1  0
 86 88  1  0
 86 89  1  0
 90 91  1  0
 90 92  1  0
 92 93  1  6
 92 94  1  0
 92 96  1  0
 94 95  2  0
 96 97  1  0
 96 98  1  0
 96 99  1  0
 99100  1  0
 99101  2  0
100103  2  0
101102  1  0
101105  1  0
103104  1  0
103105  1  0
105251  1  0
106107  1  0
106108  1  0
108109  1  1
108110  1  0
108112  1  0
110111  2  0
112113  1  0
112114  1  0
112118  1  0
114115  1  0
114116  1  0
114117  1  0
118119  1  0
118120  1  0
118121  1  0
122123  1  0
122124  1  0
124125  1  1
124126  1  0
124128  1  0
126127  2  0
126132  1  0
128129  1  0
128130  1  0
128131  1  0
132133  1  0
132134  1  0
134135  1  1
134136  1  0
134138  1  0
136137  2  0
136143  1  0
138139  1  0
138140  1  0
138141  1  0
141142  1  0
143144  1  0
143145  1  0
145146  1  1
145147  1  0
145149  1  0
147148  2  0
149150  1  0
149151  1  0
149152  1  0
152153  1  0
152154  1  0
152158  1  0
154155  1  0
154156  1  0
154157  1  0
158159  1  0
158160  1  0
158161  1  0
162163  1  0
162164  1  0
164165  1  6
164166  1  0
164168  1  0
166167  2  0
166184  1  0
168169  1  0
168170  1  0
168171  1  0
171172  1  0
171173  1  0
171174  1  0
174175  1  0
174176  1  0
174177  1  0
177178  1  0
177179  1  0
177180  1  0
180181  1  0
180182  1  0
180183  1  0
184185  1  0
184186  1  0
186187  1  6
186188  1  0
186190  1  0
188189  2  0
190191  1  0
190192  1  0
190193  1  0
193194  2  0
193196  1  0
194195  1  0
194198  1  0
196197  1  0
196200  2  0
198199  1  0
198202  2  0
200201  1  0
200202  1  0
202203  1  0
203204  1  0
205206  1  0
205207  1  0
207208  1  6
207209  1  0
207211  1  0
209210  2  0
211212  1  0
211213  1  0
211214  1  0
214215  1  0
214216  1  0
214217  1  0
217218  1  0
217219  1  0
217220  1  0
220221  1  0
220222  1  0
222223  2  0
222226  1  0
223224  1  0
223225  1  0
226227  1  0
226228  1  0
229230  1  0
229231  1  0
231232  1  1
231233  1  0
231235  1  0
233234  2  0
235236  1  0
235237  1  0
235238  1  0
238239  2  0
238241  1  0
239240  1  0
239243  1  0
241242  1  0
241245  2  0
243244  1  0
243247  2  0
245246  1  0
245247  1  0
247248  1  0
248249  1  0
M  RAD  8   1   2   5   2  13   2  39   2  55   2  59   2  71   2  75   2
M  RAD  8  90   2  94   2 106   2 110   2 122   2 147   2 162   2 188   2
M  CHG  2 180   1 223   1
M  RAD  4 205   2 209   2 229   2 233   2
M  END
$$$$

     RDKit          3D

251245  0  0  0  0  0  0  0  0999 V2000
    8.2390   15.7430  -10.2460 N   0  0  0  0  0  2  0  0  0  0  0  0
    8.4060   14.8450   -9.7480 H   0  0  0  0  0  0  0  0  0  0  0  0
    7.1270   16.5820   -9.8330 C   0  0  2  0  0  0  0  0  0  0  0  0
    6.5240   16.7530  -10.7240 H   0  0  0  0  0  0  0  0  0  0  0  0
    7.5010   17.9630   -9.3590 C   0  0  0  0  0  3  0  0  0  0  0  0
    8.3130   18.1090   -8.4540 O   0  0  0  0  0  0  0  0  0  0  0  0
    6.3630   15.8620   -8.7680 C   0  0  0  0  0  0  0  0  0  0  0  0
    7.0440   15.5910   -7.9610 H   0  0  0  0  0  0  0  0  0  0  0  0
    5.5850   16.5200   -8.3800 H   0  0  0  0  0  0  0  0  0  0  0  0
    5.7360   14.6350   -9.3040 C   0  0  0  0  0  0  0  0  0  0  0  0
    4.8520   14.7920  -10.1880 O   0  0  0  0  0  0  0  0  0  0  0  0
    6.1520   13.5130   -8.8840 O   0  0  0  0  0  0  0  0  0  0  0  0
    1.6580   16.8130  -11.9920 N   0  0  0  0  0  2  0  0  0  0  0  0
    2.3630   16.6600  -11.2430 H   0  0  0  0  0  0  0  0  0  0  0  0
    0.5750   15.8710  -12.1280 C   0  0  2  0  0  0  0  0  0  0  0  0
    0.1290   15.9910  -13.1150 H   0  0  0  0  0  0  0  0  0  0  0  0
   -0.5220   16.1130  -11.1130 C   0  0  0  0  0  0  0  0  0  0  0  0
   -0.2990   16.7340  -10.0760 O   0  0  0  0  0  0  0  0  0  0  0  0
    1.1300   14.4960  -11.9520 C   0  0  0  0  0  0  0  0  0  0  0  0
    0.3140   13.7740  -11.9180 H   0  0  0  0  0  0  0  0  0  0  0  0
    1.6970   14.4460  -11.0220 H   0  0  0  0  0  0  0  0  0  0  0  0
    1.9940   14.1960  -13.0610 O   0  0  0  0  0  0  0  0  0  0  0  0
    2.3660   13.2850  -12.9510 H   0  0  0  0  0  0  0  0  0  0  0  0
   -1.7070   15.5990  -11.3820 N   0  0  0  0  0  0  0  0  0  0  0  0
   -1.8300   15.0390  -12.2500 H   0  0  0  0  0  0  0  0  0  0  0  0
   -2.8500   15.7940  -10.4960 C   0  0  2  0  0  0  0  0  0  0  0  0
   -2.4940   15.6940   -9.4710 H   0  0  0  0  0  0  0  0  0  0  0  0
   -3.9360   14.7420  -10.7100 C   0  0  0  0  0  0  0  0  0  0  0  0
   -4.1170   14.2150  -11.8220 O   0  0  0  0  0  0  0  0  0  0  0  0
   -3.4310   17.1680  -10.7260 C   0  0  0  0  0  0  0  0  0  0  0  0
   -3.6970   17.2780  -11.7770 H   0  0  0  0  0  0  0  0  0  0  0  0
   -2.6920   17.9230  -10.4590 H   0  0  0  0  0  0  0  0  0  0  0  0
   -4.5930   17.3400   -9.9250 O   0  0  0  0  0  0  0  0  0  0  0  0
   -4.9690   18.2430  -10.0800 H   0  0  0  0  0  0  0  0  0  0  0  0
   -4.6520   14.4140   -9.6350 N   0  0  0  0  0  0  0  0  0  0  0  0
   -4.3590   14.7920   -8.7110 H   0  0  0  0  0  0  0  0  0  0  0  0
   -5.8320   13.5460   -9.6910 C   0  0  2  0  0  0  0  0  0  0  0  0
   -5.6450   12.7780  -10.4420 H   0  0  0  0  0  0  0  0  0  0  0  0
   -7.0770   14.3290  -10.1220 C   0  0  0  0  0  3  0  0  0  0  0  0
   -8.0250   13.7390  -10.5890 O   0  0  0  0  0  0  0  0  0  0  0  0
   -6.0610   12.8570   -8.3570 C   0  0  0  0  0  0  0  0  0  0  0  0
   -5.9730   13.6020   -7.5670 H   0  0  0  0  0  0  0  0  0  0  0  0
   -7.0700   12.4440   -8.3540 H   0  0  0  0  0  0  0  0  0  0  0  0
   -5.0730   11.7210   -8.0610 C   0  0  0  0  0  0  0  0  0  0  0  0
   -4.0720   11.8810   -7.1020 C   0  0  0  0  0  0  0  0  0  0  0  0
   -3.9860   12.8270   -6.5670 H   0  0  0  0  0  0  0  0  0  0  0  0
   -5.1740   10.4980   -8.7080 C   0  0  0  0  0  0  0  0  0  0  0  0
   -5.9560   10.3530   -9.4530 H   0  0  0  0  0  0  0  0  0  0  0  0
   -3.1820   10.8480   -6.8190 C   0  0  0  0  0  0  0  0  0  0  0  0
   -2.4060   10.9870   -6.0660 H   0  0  0  0  0  0  0  0  0  0  0  0
   -4.2920    9.4420   -8.4250 C   0  0  0  0  0  0  0  0  0  0  0  0
   -4.4060    8.4830   -8.9310 H   0  0  0  0  0  0  0  0  0  0  0  0
   -3.2860    9.6220   -7.5080 C   0  0  0  0  0  0  0  0  0  0  0  0
   -2.5720    8.8220   -7.3140 H   0  0  0  0  0  0  0  0  0  0  0  0
   -3.3140    5.0230  -13.0570 N   0  0  0  0  0  2  0  0  0  0  0  0
   -4.1400    5.6150  -12.8370 H   0  0  0  0  0  0  0  0  0  0  0  0
   -2.5170    4.4610  -11.9940 C   0  0  2  0  0  0  0  0  0  0  0  0
   -1.7250    3.8470  -12.4230 H   0  0  0  0  0  0  0  0  0  0  0  0
   -3.4380    3.6400  -11.1070 C   0  0  0  0  0  3  0  0  0  0  0  0
   -4.4710    4.1900  -10.6370 O   0  0  0  0  0  0  0  0  0  0  0  0
   -1.8540    5.5840  -11.1350 C   0  0  0  0  0  0  0  0  0  0  0  0
   -2.6490    6.2450  -10.7900 H   0  0  0  0  0  0  0  0  0  0  0  0
   -1.1450    4.9970   -9.9330 C   0  0  0  0  0  0  0  0  0  0  0  0
   -1.8650    4.4610   -9.3150 H   0  0  0  0  0  0  0  0  0  0  0  0
   -0.3700    4.3090  -10.2700 H   0  0  0  0  0  0  0  0  0  0  0  0
   -0.6920    5.8000   -9.3520 H   0  0  0  0  0  0  0  0  0  0  0  0
   -0.8790    6.3820  -11.9530 C   0  0  0  0  0  0  0  0  0  0  0  0
   -0.0980    5.7220  -12.3300 H   0  0  0  0  0  0  0  0  0  0  0  0
   -1.4020    6.8440  -12.7900 H   0  0  0  0  0  0  0  0  0  0  0  0
   -0.4320    7.1570  -11.3300 H   0  0  0  0  0  0  0  0  0  0  0  0
   -4.5210    2.0210   -7.7850 N   0  0  0  0  0  2  0  0  0  0  0  0
   -5.4600    2.1270   -8.2190 H   0  0  0  0  0  0  0  0  0  0  0  0
   -4.3760    2.2860   -6.3400 C   0  0  2  0  0  0  0  0  0  0  0  0
   -3.3700    1.9630   -6.0710 H   0  0  0  0  0  0  0  0  0  0  0  0
   -5.3740    1.4700   -5.5200 C   0  0  0  0  0  3  0  0  0  0  0  0
   -6.6090    1.7400   -5.5300 O   0  0  0  0  0  0  0  0  0  0  0  0
   -4.4620    3.8040   -5.9870 C   0  0  2  0  0  0  0  0  0  0  0  0
   -5.4400    4.1780   -6.2900 H   0  0  0  0  0  0  0  0  0  0  0  0
   -3.3750    4.5860   -6.7450 C   0  0  0  0  0  0  0  0  0  0  0  0
   -2.4260    4.4330   -6.2310 H   0  0  0  0  0  0  0  0  0  0  0  0
   -3.3090    4.1820   -7.7550 H   0  0  0  0  0  0  0  0  0  0  0  0
   -4.3050    4.0130   -4.4580 C   0  0  0  0  0  0  0  0  0  0  0  0
   -5.1000    3.4810   -3.9360 H   0  0  0  0  0  0  0  0  0  0  0  0
   -3.3370    3.6280   -4.1370 H   0  0  0  0  0  0  0  0  0  0  0  0
   -4.3670    5.0770   -4.2300 H   0  0  0  0  0  0  0  0  0  0  0  0
   -3.6210    6.0930   -6.8510 C   0  0  0  0  0  0  0  0  0  0  0  0
   -4.5590    6.2710   -7.3760 H   0  0  0  0  0  0  0  0  0  0  0  0
   -3.6760    6.5220   -5.8510 H   0  0  0  0  0  0  0  0  0  0  0  0
   -2.8020    6.5560   -7.4010 H   0  0  0  0  0  0  0  0  0  0  0  0
   -7.1030    4.9550  -11.2140 N   0  0  0  0  0  2  0  0  0  0  0  0
   -6.1220    4.6450  -11.0650 H   0  0  0  0  0  0  0  0  0  0  0  0
   -7.3690    6.3930  -11.2260 C   0  0  2  0  0  0  0  0  0  0  0  0
   -8.4260    6.5500  -11.4390 H   0  0  0  0  0  0  0  0  0  0  0  0
   -6.5510    7.1110  -12.3230 C   0  0  0  0  0  3  0  0  0  0  0  0
   -5.3670    6.8340  -12.4820 O   0  0  0  0  0  0  0  0  0  0  0  0
   -6.9990    6.9690   -9.8590 C   0  0  0  0  0  0  0  0  0  0  0  0
   -5.9460    6.7590   -9.6690 H   0  0  0  0  0  0  0  0  0  0  0  0
   -7.1550    8.0480   -9.8840 H   0  0  0  0  0  0  0  0  0  0  0  0
   -7.8100    6.3970   -8.7320 C   0  0  0  0  0  0  0  0  0  0  0  0
   -9.1120    6.7880   -8.4820 N   0  0  0  0  0  0  0  0  0  0  0  0
   -7.5200    5.4300   -7.8250 C   0  0  0  0  0  0  0  0  0  0  0  0
   -6.5730    4.9000   -7.7210 H   0  0  0  0  0  0  0  0  0  0  0  0
   -9.5840    6.0790   -7.4730 C   0  0  0  0  0  0  0  0  0  0  0  0
  -10.5840    6.1660   -7.0470 H   0  0  0  0  0  0  0  0  0  0  0  0
   -8.6430    5.2470   -7.0660 N   0  0  0  0  0  0  0  0  0  0  0  0
   -4.3430    9.9870  -13.8600 N   0  0  0  0  0  2  0  0  0  0  0  0
   -3.9430    9.2670  -14.4950 H   0  0  0  0  0  0  0  0  0  0  0  0
   -3.4660   11.0950  -13.4060 C   0  0  2  0  0  0  0  0  0  0  0  0
   -3.9980   11.6020  -12.6010 H   0  0  0  0  0  0  0  0  0  0  0  0
   -3.1980   12.0700  -14.5610 C   0  0  0  0  0  3  0  0  0  0  0  0
   -2.6940   11.6660  -15.6100 O   0  0  0  0  0  0  0  0  0  0  0  0
   -2.1230   10.5980  -12.8370 C   0  0  0  0  0  0  0  0  0  0  0  0
   -1.6160   10.0380  -13.6230 H   0  0  0  0  0  0  0  0  0  0  0  0
   -1.2160   11.7770  -12.4230 C   0  0  0  0  0  0  0  0  0  0  0  0
   -1.0140   12.4010  -13.2930 H   0  0  0  0  0  0  0  0  0  0  0  0
   -1.7190   12.3690  -11.6580 H   0  0  0  0  0  0  0  0  0  0  0  0
   -0.2780   11.3900  -12.0260 H   0  0  0  0  0  0  0  0  0  0  0  0
   -2.3600    9.6900  -11.6480 C   0  0  0  0  0  0  0  0  0  0  0  0
   -2.8940   10.2400  -10.8730 H   0  0  0  0  0  0  0  0  0  0  0  0
   -2.9540    8.8310  -11.9610 H   0  0  0  0  0  0  0  0  0  0  0  0
   -1.4020    9.3470  -11.2570 H   0  0  0  0  0  0  0  0  0  0  0  0
   10.6540   11.3050   -5.5760 N   0  0  0  0  0  2  0  0  0  0  0  0
   10.3920   12.2850   -5.8030 H   0  0  0  0  0  0  0  0  0  0  0  0
   10.0940   10.6720   -4.3490 C   0  0  2  0  0  0  0  0  0  0  0  0
   10.8680    9.9920   -3.9930 H   0  0  0  0  0  0  0  0  0  0  0  0
    8.8430    9.8410   -4.6350 C   0  0  0  0  0  0  0  0  0  0  0  0
    8.3760    9.1070   -3.7350 O   0  0  0  0  0  0  0  0  0  0  0  0
    9.8210   11.6790   -3.2540 C   0  0  0  0  0  0  0  0  0  0  0  0
   10.7510   12.1790   -2.9810 H   0  0  0  0  0  0  0  0  0  0  0  0
    9.1020   12.4160   -3.6110 H   0  0  0  0  0  0  0  0  0  0  0  0
    9.4140   11.1650   -2.3830 H   0  0  0  0  0  0  0  0  0  0  0  0
    8.3280    9.9240   -5.8760 N   0  0  0  0  0  0  0  0  0  0  0  0
    8.8050   10.5390   -6.5650 H   0  0  0  0  0  0  0  0  0  0  0  0
    7.1420    9.2010   -6.3060 C   0  0  2  0  0  0  0  0  0  0  0  0
    6.4000    9.3360   -5.5190 H   0  0  0  0  0  0  0  0  0  0  0  0
    7.4250    7.7530   -6.4980 C   0  0  0  0  0  0  0  0  0  0  0  0
    8.5700    7.2700   -6.4620 O   0  0  0  0  0  0  0  0  0  0  0  0
    6.6180    9.7450   -7.6390 C   0  0  0  0  0  0  0  0  0  0  0  0
    5.6190    9.3460   -7.8150 H   0  0  0  0  0  0  0  0  0  0  0  0
    7.2840    9.4210   -8.4390 H   0  0  0  0  0  0  0  0  0  0  0  0
    6.5530   11.1910   -7.6390 O   0  0  0  0  0  0  0  0  0  0  0  0
    6.2110   11.5050   -8.5140 H   0  0  0  0  0  0  0  0  0  0  0  0
    6.3550    7.0580   -6.8100 N   0  0  0  0  0  0  0  0  0  0  0  0
    5.4610    7.5640   -6.9720 H   0  0  0  0  0  0  0  0  0  0  0  0
    6.3700    5.6400   -6.9350 C   0  0  2  0  0  0  0  0  0  0  0  0
    7.1620    5.1570   -6.3640 H   0  0  0  0  0  0  0  0  0  0  0  0
    6.5790    5.3360   -8.4090 C   0  0  0  0  0  3  0  0  0  0  0  0
    6.0940    6.0730   -9.2600 O   0  0  0  0  0  0  0  0  0  0  0  0
    5.0220    5.1190   -6.4090 C   0  0  0  0  0  0  0  0  0  0  0  0
    4.2350    5.7010   -6.8870 H   0  0  0  0  0  0  0  0  0  0  0  0
    4.9330    4.0750   -6.7090 H   0  0  0  0  0  0  0  0  0  0  0  0
    4.7900    5.1880   -4.8740 C   0  0  0  0  0  0  0  0  0  0  0  0
    5.0100    6.2120   -4.5710 H   0  0  0  0  0  0  0  0  0  0  0  0
    3.3110    4.7880   -4.5700 C   0  0  0  0  0  0  0  0  0  0  0  0
    2.6380    5.4790   -5.0770 H   0  0  0  0  0  0  0  0  0  0  0  0
    3.1300    3.7740   -4.9260 H   0  0  0  0  0  0  0  0  0  0  0  0
    3.1370    4.8330   -3.4950 H   0  0  0  0  0  0  0  0  0  0  0  0
    5.7270    4.2640   -4.0560 C   0  0  0  0  0  0  0  0  0  0  0  0
    5.5710    3.2290   -4.3610 H   0  0  0  0  0  0  0  0  0  0  0  0
    6.7640    4.5460   -4.2400 H   0  0  0  0  0  0  0  0  0  0  0  0
    5.5030    4.3690   -2.9940 H   0  0  0  0  0  0  0  0  0  0  0  0
    5.3050    3.2970  -10.3550 N   0  0  0  0  0  2  0  0  0  0  0  0
    5.3190    3.2100   -9.3190 H   0  0  0  0  0  0  0  0  0  0  0  0
    4.1120    2.9140  -11.0930 C   0  0  2  0  0  0  0  0  0  0  0  0
    4.3770    2.2010  -11.8730 H   0  0  0  0  0  0  0  0  0  0  0  0
    3.5250    4.1710  -11.7290 C   0  0  0  0  0  0  0  0  0  0  0  0
    2.8290    4.0740  -12.7370 O   0  0  0  0  0  0  0  0  0  0  0  0
    3.0890    2.1810  -10.2000 C   0  0  0  0  0  0  0  0  0  0  0  0
    2.2390    1.8870  -10.8160 H   0  0  0  0  0  0  0  0  0  0  0  0
    3.5630    1.2900   -9.7890 H   0  0  0  0  0  0  0  0  0  0  0  0
    2.5850    3.0260   -9.0590 C   0  0  0  0  0  0  0  0  0  0  0  0
    3.2850    2.9380   -8.2280 H   0  0  0  0  0  0  0  0  0  0  0  0
    2.5440    4.0640   -9.3890 H   0  0  0  0  0  0  0  0  0  0  0  0
    1.2080    2.6210   -8.5730 C   0  0  0  0  0  0  0  0  0  0  0  0
    0.7530    3.4710   -8.0650 H   0  0  0  0  0  0  0  0  0  0  0  0
    0.6000    2.3470   -9.4350 H   0  0  0  0  0  0  0  0  0  0  0  0
    1.2480    1.4500   -7.6160 C   0  0  0  0  0  0  0  0  0  0  0  0
    2.1300    1.5540   -6.9850 H   0  0  0  0  0  0  0  0  0  0  0  0
    1.3270    0.5330   -8.2000 H   0  0  0  0  0  0  0  0  0  0  0  0
    0.0220    1.3380   -6.7120 N   0  0  0  0  0  4  0  0  0  0  0  0
   -0.0630    2.2000   -6.1370 H   0  0  0  0  0  0  0  0  0  0  0  0
   -0.8300    1.2250   -7.2980 H   0  0  0  0  0  0  0  0  0  0  0  0
    0.1270    0.5130   -6.0880 H   0  0  0  0  0  0  0  0  0  0  0  0
    3.8150    5.3320  -11.1570 N   0  0  0  0  0  0  0  0  0  0  0  0
    4.3440    5.3460  -10.2620 H   0  0  0  0  0  0  0  0  0  0  0  0
    3.4060    6.5700  -11.7600 C   0  0  2  0  0  0  0  0  0  0  0  0
    2.6010    6.3500  -12.4610 H   0  0  0  0  0  0  0  0  0  0  0  0
    4.5830    7.2000  -12.5340 C   0  0  0  0  0  3  0  0  0  0  0  0
    4.3900    7.6850  -13.6440 O   0  0  0  0  0  0  0  0  0  0  0  0
    2.8330    7.5740  -10.6990 C   0  0  0  0  0  0  0  0  0  0  0  0
    1.7520    7.4410  -10.6510 H   0  0  0  0  0  0  0  0  0  0  0  0
    3.2710    7.3350   -9.7300 H   0  0  0  0  0  0  0  0  0  0  0  0
    3.1220    9.0400  -11.0060 C   0  0  0  0  0  0  0  0  0  0  0  0
    2.4190    9.6990  -11.9770 C   0  0  0  0  0  0  0  0  0  0  0  0
    1.6340    9.1740  -12.5200 H   0  0  0  0  0  0  0  0  0  0  0  0
    4.1580    9.7400  -10.3510 C   0  0  0  0  0  0  0  0  0  0  0  0
    4.7460    9.2230   -9.5930 H   0  0  0  0  0  0  0  0  0  0  0  0
    2.7000   11.0760  -12.2930 C   0  0  0  0  0  0  0  0  0  0  0  0
    2.1060   11.5870  -13.0510 H   0  0  0  0  0  0  0  0  0  0  0  0
    4.4620   11.1120  -10.6520 C   0  0  0  0  0  0  0  0  0  0  0  0
    5.2550   11.6380  -10.1200 H   0  0  0  0  0  0  0  0  0  0  0  0
    3.7150   11.7570  -11.6450 C   0  0  0  0  0  0  0  0  0  0  0  0
    3.9630   13.0750  -12.0290 O   0  0  0  0  0  0  0  0  0  0  0  0
    3.3260   13.3360  -12.7410 H   0  0  0  0  0  0  0  0  0  0  0  0
   10.9780    6.3050   -4.9480 N   0  0  0  0  0  2  0  0  0  0  0  0
   10.1880    5.9880   -5.5450 H   0  0  0  0  0  0  0  0  0  0  0  0
   10.7200    6.5580   -3.5270 C   0  0  2  0  0  0  0  0  0  0  0  0
   10.9690    7.6020   -3.3390 H   0  0  0  0  0  0  0  0  0  0  0  0
   11.6250    5.7190   -2.6400 C   0  0  0  0  0  3  0  0  0  0  0  0
   12.2670    6.2920   -1.7970 O   0  0  0  0  0  0  0  0  0  0  0  0
    9.2040    6.4100   -3.1540 C   0  0  0  0  0  0  0  0  0  0  0  0
    8.6640    7.2090   -3.6620 H   0  0  0  0  0  0  0  0  0  0  0  0
    8.8680    5.4460   -3.5360 H   0  0  0  0  0  0  0  0  0  0  0  0
    8.8060    6.4750   -1.6050 C   0  0  0  0  0  0  0  0  0  0  0  0
    9.0730    5.5270   -1.1380 H   0  0  0  0  0  0  0  0  0  0  0  0
    9.3690    7.2810   -1.1350 H   0  0  0  0  0  0  0  0  0  0  0  0
    7.2710    6.7340   -1.3710 C   0  0  0  0  0  0  0  0  0  0  0  0
    6.9860    6.4380   -0.3620 H   0  0  0  0  0  0  0  0  0  0  0  0
    6.6770    6.1740   -2.0940 H   0  0  0  0  0  0  0  0  0  0  0  0
    7.0740    8.1750   -1.5550 N   0  0  0  0  0  0  0  0  0  0  0  0
    7.9010    8.7810   -1.3810 H   0  0  0  0  0  0  0  0  0  0  0  0
    5.9530    8.7950   -1.9200 C   0  0  0  0  0  0  0  0  0  0  0  0
    4.8300    8.1290   -2.1550 N   0  0  0  0  0  4  0  0  0  0  0  0
    4.8090    7.0940   -2.0560 H   0  0  0  0  0  0  0  0  0  0  0  0
    3.9710    8.6420   -2.4390 H   0  0  0  0  0  0  0  0  0  0  0  0
    5.9750   10.1110   -2.0680 N   0  0  0  0  0  0  0  0  0  0  0  0
    6.8550   10.6390   -1.9000 H   0  0  0  0  0  0  0  0  0  0  0  0
    5.1120   10.6170   -2.3520 H   0  0  0  0  0  0  0  0  0  0  0  0
   11.6800   13.6970    2.1500 N   0  0  0  0  0  2  0  0  0  0  0  0
   11.0060   14.3750    1.7400 H   0  0  0  0  0  0  0  0  0  0  0  0
   12.3750   12.7460    1.2760 C   0  0  2  0  0  0  0  0  0  0  0  0
   12.5890   11.8420    1.8460 H   0  0  0  0  0  0  0  0  0  0  0  0
   13.6730   13.4000    0.7880 C   0  0  0  0  0  3  0  0  0  0  0  0
   13.6690   14.3550    0.0170 O   0  0  0  0  0  0  0  0  0  0  0  0
   11.5200   12.3200    0.0890 C   0  0  0  0  0  0  0  0  0  0  0  0
   11.3570   13.1990   -0.5350 H   0  0  0  0  0  0  0  0  0  0  0  0
   12.0810   11.5750   -0.4740 H   0  0  0  0  0  0  0  0  0  0  0  0
   10.1640   11.7270    0.4160 C   0  0  0  0  0  0  0  0  0  0  0  0
   10.0310   10.3500    0.7370 C   0  0  0  0  0  0  0  0  0  0  0  0
   10.9170    9.7150    0.7680 H   0  0  0  0  0  0  0  0  0  0  0  0
    9.0060   12.5450    0.3790 C   0  0  0  0  0  0  0  0  0  0  0  0
    9.1020   13.6000    0.1210 H   0  0  0  0  0  0  0  0  0  0  0  0
    8.7740    9.8000    1.0140 C   0  0  0  0  0  0  0  0  0  0  0  0
    8.6750    8.7420    1.2580 H   0  0  0  0  0  0  0  0  0  0  0  0
    7.7410   12.0170    0.6690 C   0  0  0  0  0  0  0  0  0  0  0  0
    6.8570   12.6550    0.6610 H   0  0  0  0  0  0  0  0  0  0  0  0
    7.6340   10.6360    0.9730 C   0  0  0  0  0  0  0  0  0  0  0  0
    6.3730   10.1120    1.2340 O   0  0  0  0  0  0  0  0  0  0  0  0
    6.4530    9.1450    1.4290 H   0  0  0  0  0  0  0  0  0  0  0  0
    6.8140   13.4770   -8.2220 H   0  0  0  0  0  0  0  0  0  0  0  0
   -8.7350    4.5970   -6.3320 H   0  0  0  0  0  0  0  0  0  0  0  0
  1  2  1  0
  1  3  1  0
  3  4  1  6
  3  5  1  0
  3  7  1  0
  5  6  2  0
  7  8  1  0
  7  9  1  0
  7 10  1  0
 10 11  2  0
 10 12  1  0
 12250  1  0
 13 14  1  0
 13 15  1  0
 15 16  1  6
 15 17  1  0
 15 19  1  0
 17 18  2  0
 17 24  1  0
 19 20  1  0
 19 21  1  0
 19 22  1  0
 22 23  1  0
 24 25  1  0
 24 26  1  0
 26 27  1  1
 26 28  1  0
 26 30  1  0
 28 29  2  0
 28 35  1  0
 30 31  1  0
 30 32  1  0
 30 33  1  0
 33 34  1  0
 35 36  1  0
 35 37  1  0
 37 38  1  6
 37 39  1  0
 37 41  1  0
 39 40  2  0
 41 42  1  0
 41 43  1  0
 41 44  1  0
 44 45  2  0
 44 47  1  0
 45 46  1  0
 45 49  1  0
 47 48  1  0
 47 51  2  0
 49 50  1  0
 49 53  2  0
 51 52  1  0
 51 53  1  0
 53 54  1  0
 55 56  1  0
 55 57  1  0
 57 58  1  6
 57 59  1  0
 57 61  1  0
 59 60  2  0
 61 62  1  0
 61 63  1  0
 61 67  1  0
 63 64  1  0
 63 65  1  0
 63 66  1  0
 67 68  1  0
 67 69  1  0
 67 70  1  0
 71 72  1  0
 71 73  1  0
 73 74  1  1
 73 75  1  0
 73 77  1  0
 75 76  2  0
 77 78  1  6
 77 79  1  0
 77 82  1  0
 79 80  1  0
 79 81  1  0
 79 86  1  0
 82 83  1  0
 82 84  1  0
 82 85  1  0
 86 87  1  0
 86 88  1  0
 86 89  1  0
 90 91  1  0
 90 92  1  0
 92 93  1  6
 92 94  1  0
 92 96  1  0
 94 95  2  0
 96 97  1  0
 96 98  1  0
 96 99  1  0
 99100  1  0
 99101  2  0
100103  2  0
101102  1  0
101105  1  0
103104  1  0
103105  1  0
105251  1  0
106107  1  0
106108  1  0
108109  1  1
108110  1  0
108112  1  0
110111  2  0
112113  1  0
112114  1  0
112118  1  0
114115  1  0
114116  1  0
114117  1  0
118119  1  0
118120  1  0
118121  1  0
122123  1  0
122124  1  0
124125  1  1
124126  1  0
124128  1  0
126127  2  0
126132  1  0
128129  1  0
128130  1  0
128131  1  0
132133  1  0
132134  1  0
134135  1  1
134136  1  0
134138  1  0
136137  2  0
136143  1  0
138139  1  0
138140  1  0
138141  1  0
141142  1  0
143144  1  0
143145  1  0
145146  1  1
145147  1  0
145149  1  0
147148  2  0
149150  1  0
149151  1  0
149152  1  0
152153  1  0
152154  1  0
152158  1  0
154155  1  0
154156  1  0
154157  1  0
158159  1  0
158160  1  0
158161  1  0
162163  1  0
162164  1  0
164165  1  6
164166  1  0
164168  1  0
166167  2  0
166184  1  0
168169  1  0
168170  1  0
168171  1  0
171172  1  0
171173  1  0
171174  1  0
174175  1  0
174176  1  0
174177  1  0
177178  1  0
177179  1  0
177180  1  0
180181  1  0
180182  1  0
180183  1  0
184185  1  0
184186  1  0
186187  1  6
186188  1  0
186190  1  0
188189  2  0
190191  1  0
190192  1  0
190193  1  0
193194  2  0
193196  1  0
194195  1  0
194198  1  0
196197  1  0
196200  2  0
198199  1  0
198202  2  0
200201  1  0
200202  1  0
202203  1  0
203204  1  0
205206  1  0
205207  1  0
207208  1  6
207209  1  0
207211  1  0
209210  2  0
211212  1  0
211213  1  0
211214  1  0
214215  1  0
214216  1  0
214217  1  0
217218  1  0
217219  1  0
217220  1  0
220221  1  0
220222  1  0
222223  2  0
222226  1  0
223224  1  0
223225  1  0
226227  1  0
226228  1  0
229230  1  0
229231  1  0
231232  1  1
231233  1  0
231235  1  0
233234  2  0
235236  1  0
235237  1  0
235238  1  0
238239  2  0
238241  1  0
239240  1  0
239243  1  0
241242  1  0
241245  2  0
243244  1  0
243247  2  0
245246  1  0
245247  1  0
247248  1  0
248249  1  0
M  RAD  8   1   2   5   2  13   2  39   2  55   2  59   2  71   2  75   2
M  RAD  8  90   2  94   2 106   2 110   2 122   2 147   2 162   2 188   2
M  CHG  2 180   1 223   1
M  RAD  4 205   2 209   2 229   2 233   2
M  END
$$$$

     RDKit          3D

251245  0  0  0  0  0  0  0  0999 V2000
    8.2390   15.7430  -10.2460 N   0  0  0  0  0  2  0  0  0  0  0  0
    8.4060   14.8450   -9.7480 H   0  0  0  0  0  0  0  0  0  0  0  0
    7.1270   16.5820   -9.8330 C   0  0  2  0  0  0  0  0  0  0  0  0
    6.5240   16.7530  -10.7240 H   0  0  0  0  0  0  0  0  0  0  0  0
    7.5010   17.9630   -9.3590 C   0  0  0  0  0  3  0  0  0  0  0  0
    8.3130   18.1090   -8.4540 O   0  0  0  0  0  0  0  0  0  0  0  0
    6.3630   15.8620   -8.7680 C   0  0  0  0  0  0  0  0  0  0  0  0
    7.0440   15.5910   -7.9610 H   0  0  0  0  0  0  0  0  0  0  0  0
    5.5850   16.5200   -8.3800 H   0  0  0  0  0  0  0  0  0  0  0  0
    5.7360   14.6350   -9.3040 C   0  0  0  0  0  0  0  0  0  0  0  0
    4.8520   14.7920  -10.1880 O   0  0  0  0  0  0  0  0  0  0  0  0
    6.1520   13.5130   -8.8840 O   0  0  0  0  0  0  0  0  0  0  0  0
    1.6580   16.8130  -11.9920 N   0  0  0  0  0  2  0  0  0  0  0  0
    2.3630   16.6600  -11.2430 H   0  0  0  0  0  0  0  0  0  0  0  0
    0.5750   15.8710  -12.1280 C   0  0  2  0  0  0  0  0  0  0  0  0
    0.1290   15.9910  -13.1150 H   0  0  0  0  0  0  0  0  0  0  0  0
   -0.5220   16.1130  -11.1130 C   0  0  0  0  0  0  0  0  0  0  0  0
   -0.2990   16.7340  -10.0760 O   0  0  0  0  0  0  0  0  0  0  0  0
    1.1300   14.4960  -11.9520 C   0  0  0  0  0  0  0  0  0  0  0  0
    0.3140   13.7740  -11.9180 H   0  0  0  0  0  0  0  0  0  0  0  0
    1.6970   14.4460  -11.0220 H   0  0  0  0  0  0  0  0  0  0  0  0
    1.9940   14.1960  -13.0610 O   0  0  0  0  0  0  0  0  0  0  0  0
    2.3660   13.2850  -12.9510 H   0  0  0  0  0  0  0  0  0  0  0  0
   -1.7070   15.5990  -11.3820 N   0  0  0  0  0  0  0  0  0  0  0  0
   -1.8300   15.0390  -12.2500 H   0  0  0  0  0  0  0  0  0  0  0  0
   -2.8500   15.7940  -10.4960 C   0  0  2  0  0  0  0  0  0  0  0  0
   -2.4940   15.6940   -9.4710 H   0  0  0  0  0  0  0  0  0  0  0  0
   -3.9360   14.7420  -10.7100 C   0  0  0  0  0  0  0  0  0  0  0  0
   -4.1170   14.2150  -11.8220 O   0  0  0  0  0  0  0  0  0  0  0  0
   -3.4310   17.1680  -10.7260 C   0  0  0  0  0  0  0  0  0  0  0  0
   -3.6970   17.2780  -11.7770 H   0  0  0  0  0  0  0  0  0  0  0  0
   -2.6920   17.9230  -10.4590 H   0  0  0  0  0  0  0  0  0  0  0  0
   -4.5930   17.3400   -9.9250 O   0  0  0  0  0  0  0  0  0  0  0  0
   -4.9690   18.2430  -10.0800 H   0  0  0  0  0  0  0  0  0  0  0  0
   -4.6520   14.4140   -9.6350 N   0  0  0  0  0  0  0  0  0  0  0  0
   -4.3590   14.7920   -8.7110 H   0  0  0  0  0  0  0  0  0  0  0  0
   -5.8320   13.5460   -9.6910 C   0  0  2  0  0  0  0  0  0  0  0  0
   -5.6450   12.7780  -10.4420 H   0  0  0  0  0  0  0  0  0  0  0  0
   -7.0770   14.3290  -10.1220 C   0  0  0  0  0  3  0  0  0  0  0  0
   -8.0250   13.7390  -10.5890 O   0  0  0  0  0  0  0  0  0  0  0  0
   -6.0610   12.8570   -8.3570 C   0  0  0  0  0  0  0  0  0  0  0  0
   -5.9730   13.6020   -7.5670 H   0  0  0  0  0  0  0  0  0  0  0  0
   -7.0700   12.4440   -8.3540 H   0  0  0  0  0  0  0  0  0  0  0  0
   -5.0730   11.7210   -8.0610 C   0  0  0  0  0  0  0  0  0  0  0  0
   -4.0720   11.8810   -7.1020 C   0  0  0  0  0  0  0  0  0  0  0  0
   -3.9860   12.8270   -6.5670 H   0  0  0  0  0  0  0  0  0  0  0  0
   -5.1740   10.4980   -8.7080 C   0  0  0  0  0  0  0  0  0  0  0  0
   -5.9560   10.3530   -9.4530 H   0  0  0  0  0  0  0  0  0  0  0  0
   -3.1820   10.8480   -6.8190 C   0  0  0  0  0  0  0  0  0  0  0  0
   -2.4060   10.9870   -6.0660 H   0  0  0  0  0  0  0  0  0  0  0  0
   -4.2920    9.4420   -8.4250 C   0  0  0  0  0  0  0  0  0  0  0  0
   -4.4060    8.4830   -8.9310 H   0  0  0  0  0  0  0  0  0  0  0  0
   -3.2860    9.6220   -7.5080 C   0  0  0  0  0  0  0  0  0  0  0  0
   -2.5720    8.8220   -7.3140 H   0  0  0  0  0  0  0  0  0  0  0  0
   -3.3140    5.0230  -13.0570 N   0  0  0  0  0  2  0  0  0  0  0  0
   -4.1400    5.6150  -12.8370 H   0  0  0  0  0  0  0  0  0  0  0  0
   -2.5170    4.4610  -11.9940 C   0  0  2  0  0  0  0  0  0  0  0  0
   -1.7250    3.8470  -12.4230 H   0  0  0  0  0  0  0  0  0  0  0  0
   -3.4380    3.6400  -11.1070 C   0  0  0  0  0  3  0  0  0  0  0  0
   -4.4710    4.1900  -10.6370 O   0  0  0  0  0  0  0  0  0  0  0  0
   -1.8540    5.5840  -11.1350 C   0  0  0  0  0  0  0  0  0  0  0  0
   -2.6490    6.2450  -10.7900 H   0  0  0  0  0  0  0  0  0  0  0  0
   -1.1450    4.9970   -9.9330 C   0  0  0  0  0  0  0  0  0  0  0  0
   -1.8650    4.4610   -9.3150 H   0  0  0  0  0  0  0  0  0  0  0  0
   -0.3700    4.3090  -10.2700 H   0  0  0  0  0  0  0  0  0  0  0  0
   -0.6920    5.8000   -9.3520 H   0  0  0  0  0  0  0  0  0  0  0  0
   -0.8790    6.3820  -11.9530 C   0  0  0  0  0  0  0  0  0  0  0  0
   -0.0980    5.7220  -12.3300 H   0  0  0  0  0  0  0  0  0  0  0  0
   -1.4020    6.8440  -12.7900 H   0  0  0  0  0  0  0  0  0  0  0  0
   -0.4320    7.1570  -11.3300 H   0  0  0  0  0  0  0  0  0  0  0  0
   -4.5210    2.0210   -7.7850 N   0  0  0  0  0  2  0  0  0  0  0  0
   -5.4600    2.1270   -8.2190 H   0  0  0  0  0  0  0  0  0  0  0  0
   -4.3760    2.2860   -6.3400 C   0  0  2  0  0  0  0  0  0  0  0  0
   -3.3700    1.9630   -6.0710 H   0  0  0  0  0  0  0  0  0  0  0  0
   -5.3740    1.4700   -5.5200 C   0  0  0  0  0  3  0  0  0  0  0  0
   -6.6090    1.7400   -5.5300 O   0  0  0  0  0  0  0  0  0  0  0  0
   -4.4620    3.8040   -5.9870 C   0  0  2  0  0  0  0  0  0  0  0  0
   -5.4400    4.1780   -6.2900 H   0  0  0  0  0  0  0  0  0  0  0  0
   -3.3750    4.5860   -6.7450 C   0  0  0  0  0  0  0  0  0  0  0  0
   -2.4260    4.4330   -6.2310 H   0  0  0  0  0  0  0  0  0  0  0  0
   -3.3090    4.1820   -7.7550 H   0  0  0  0  0  0  0  0  0  0  0  0
   -4.3050    4.0130   -4.4580 C   0  0  0  0  0  0  0  0  0  0  0  0
   -5.1000    3.4810   -3.9360 H   0  0  0  0  0  0  0  0  0  0  0  0
   -3.3370    3.6280   -4.1370 H   0  0  0  0  0  0  0  0  0  0  0  0
   -4.3670    5.0770   -4.2300 H   0  0  0  0  0  0  0  0  0  0  0  0
   -3.6210    6.0930   -6.8510 C   0  0  0  0  0  0  0  0  0  0  0  0
   -4.5590    6.2710   -7.3760 H   0  0  0  0  0  0  0  0  0  0  0  0
   -3.6760    6.5220   -5.8510 H   0  0  0  0  0  0  0  0  0  0  0  0
   -2.8020    6.5560   -7.4010 H   0  0  0  0  0  0  0  0  0  0  0  0
   -7.1030    4.9550  -11.2140 N   0  0  0  0  0  2  0  0  0  0  0  0
   -6.1220    4.6450  -11.0650 H   0  0  0  0  0  0  0  0  0  0  0  0
   -7.3690    6.3930  -11.2260 C   0  0  2  0  0  0  0  0  0  0  0  0
   -8.4260    6.5500  -11.4390 H   0  0  0  0  0  0  0  0  0  0  0  0
   -6.5510    7.1110  -12.3230 C   0  0  0  0  0  3  0  0  0  0  0  0
   -5.3670    6.8340  -12.4820 O   0  0  0  0  0  0  0  0  0  0  0  0
   -6.9990    6.9690   -9.8590 C   0  0  0  0  0  0  0  0  0  0  0  0
   -5.9460    6.7590   -9.6690 H   0  0  0  0  0  0  0  0  0  0  0  0
   -7.1550    8.0480   -9.8840 H   0  0  0  0  0  0  0  0  0  0  0  0
   -7.8100    6.3970   -8.7320 C   0  0  0  0  0  0  0  0  0  0  0  0
   -9.1120    6.7880   -8.4820 N   0  0  0  0  0  0  0  0  0  0  0  0
   -7.5200    5.4300   -7.8250 C   0  0  0  0  0  0  0  0  0  0  0  0
   -6.5730    4.9000   -7.7210 H   0  0  0  0  0  0  0  0  0  0  0  0
   -9.5840    6.0790   -7.4730 C   0  0  0  0  0  0  0  0  0  0  0  0
  -10.5840    6.1660   -7.0470 H   0  0  0  0  0  0  0  0  0  0  0  0
   -8.6430    5.2470   -7.0660 N   0  0  0  0  0  0  0  0  0  0  0  0
   -4.3430    9.9870  -13.8600 N   0  0  0  0  0  2  0  0  0  0  0  0
   -3.9430    9.2670  -14.4950 H   0  0  0  0  0  0  0  0  0  0  0  0
   -3.4660   11.0950  -13.4060 C   0  0  2  0  0  0  0  0  0  0  0  0
   -3.9980   11.6020  -12.6010 H   0  0  0  0  0  0  0  0  0  0  0  0
   -3.1980   12.0700  -14.5610 C   0  0  0  0  0  3  0  0  0  0  0  0
   -2.6940   11.6660  -15.6100 O   0  0  0  0  0  0  0  0  0  0  0  0
   -2.1230   10.5980  -12.8370 C   0  0  0  0  0  0  0  0  0  0  0  0
   -1.6160   10.0380  -13.6230 H   0  0  0  0  0  0  0  0  0  0  0  0
   -1.2160   11.7770  -12.4230 C   0  0  0  0  0  0  0  0  0  0  0  0
   -1.0140   12.4010  -13.2930 H   0  0  0  0  0  0  0  0  0  0  0  0
   -1.7190   12.3690  -11.6580 H   0  0  0  0  0  0  0  0  0  0  0  0
   -0.2780   11.3900  -12.0260 H   0  0  0  0  0  0  0  0  0  0  0  0
   -2.3600    9.6900  -11.6480 C   0  0  0  0  0  0  0  0  0  0  0  0
   -2.8940   10.2400  -10.8730 H   0  0  0  0  0  0  0  0  0  0  0  0
   -2.9540    8.8310  -11.9610 H   0  0  0  0  0  0  0  0  0  0  0  0
   -1.4020    9.3470  -11.2570 H   0  0  0  0  0  0  0  0  0  0  0  0
   10.6540   11.3050   -5.5760 N   0  0  0  0  0  2  0  0  0  0  0  0
   10.3920   12.2850   -5.8030 H   0  0  0  0  0  0  0  0  0  0  0  0
   10.0940   10.6720   -4.3490 C   0  0  2  0  0  0  0  0  0  0  0  0
   10.8680    9.9920   -3.9930 H   0  0  0  0  0  0  0  0  0  0  0  0
    8.8430    9.8410   -4.6350 C   0  0  0  0  0  0  0  0  0  0  0  0
    8.3760    9.1070   -3.7350 O   0  0  0  0  0  0  0  0  0  0  0  0
    9.8210   11.6790   -3.2540 C   0  0  0  0  0  0  0  0  0  0  0  0
   10.7510   12.1790   -2.9810 H   0  0  0  0  0  0  0  0  0  0  0  0
    9.1020   12.4160   -3.6110 H   0  0  0  0  0  0  0  0  0  0  0  0
    9.4140   11.1650   -2.3830 H   0  0  0  0  0  0  0  0  0  0  0  0
    8.3280    9.9240   -5.8760 N   0  0  0  0  0  0  0  0  0  0  0  0
    8.8050   10.5390   -6.5650 H   0  0  0  0  0  0  0  0  0  0  0  0
    7.1420    9.2010   -6.3060 C   0  0  2  0  0  0  0  0  0  0  0  0
    6.4000    9.3360   -5.5190 H   0  0  0  0  0  0  0  0  0  0  0  0
    7.4250    7.7530   -6.4980 C   0  0  0  0  0  0  0  0  0  0  0  0
    8.5700    7.2700   -6.4620 O   0  0  0  0  0  0  0  0  0  0  0  0
    6.6180    9.7450   -7.6390 C   0  0  0  0  0  0  0  0  0  0  0  0
    5.6190    9.3460   -7.8150 H   0  0  0  0  0  0  0  0  0  0  0  0
    7.2840    9.4210   -8.4390 H   0  0  0  0  0  0  0  0  0  0  0  0
    6.5530   11.1910   -7.6390 O   0  0  0  0  0  0  0  0  0  0  0  0
    6.2110   11.5050   -8.5140 H   0  0  0  0  0  0  0  0  0  0  0  0
    6.3550    7.0580   -6.8100 N   0  0  0  0  0  0  0  0  0  0  0  0
    5.4610    7.5640   -6.9720 H   0  0  0  0  0  0  0  0  0  0  0  0
    6.3700    5.6400   -6.9350 C   0  0  2  0  0  0  0  0  0  0  0  0
    7.1620    5.1570   -6.3640 H   0  0  0  0  0  0  0  0  0  0  0  0
    6.5790    5.3360   -8.4090 C   0  0  0  0  0  3  0  0  0  0  0  0
    6.0940    6.0730   -9.2600 O   0  0  0  0  0  0  0  0  0  0  0  0
    5.0220    5.1190   -6.4090 C   0  0  0  0  0  0  0  0  0  0  0  0
    4.2350    5.7010   -6.8870 H   0  0  0  0  0  0  0  0  0  0  0  0
    4.9330    4.0750   -6.7090 H   0  0  0  0  0  0  0  0  0  0  0  0
    4.7900    5.1880   -4.8740 C   0  0  0  0  0  0  0  0  0  0  0  0
    5.0100    6.2120   -4.5710 H   0  0  0  0  0  0  0  0  0  0  0  0
    3.3110    4.7880   -4.5700 C   0  0  0  0  0  0  0  0  0  0  0  0
    2.6380    5.4790   -5.0770 H   0  0  0  0  0  0  0  0  0  0  0  0
    3.1300    3.7740   -4.9260 H   0  0  0  0  0  0  0  0  0  0  0  0
    3.1370    4.8330   -3.4950 H   0  0  0  0  0  0  0  0  0  0  0  0
    5.7270    4.2640   -4.0560 C   0  0  0  0  0  0  0  0  0  0  0  0
    5.5710    3.2290   -4.3610 H   0  0  0  0  0  0  0  0  0  0  0  0
    6.7640    4.5460   -4.2400 H   0  0  0  0  0  0  0  0  0  0  0  0
    5.5030    4.3690   -2.9940 H   0  0  0  0  0  0  0  0  0  0  0  0
    5.3050    3.2970  -10.3550 N   0  0  0  0  0  2  0  0  0  0  0  0
    5.3190    3.2100   -9.3190 H   0  0  0  0  0  0  0  0  0  0  0  0
    4.1120    2.9140  -11.0930 C   0  0  2  0  0  0  0  0  0  0  0  0
    4.3770    2.2010  -11.8730 H   0  0  0  0  0  0  0  0  0  0  0  0
    3.5250    4.1710  -11.7290 C   0  0  0  0  0  0  0  0  0  0  0  0
    2.8290    4.0740  -12.7370 O   0  0  0  0  0  0  0  0  0  0  0  0
    3.0890    2.1810  -10.2000 C   0  0  0  0  0  0  0  0  0  0  0  0
    2.2390    1.8870  -10.8160 H   0  0  0  0  0  0  0  0  0  0  0  0
    3.5630    1.2900   -9.7890 H   0  0  0  0  0  0  0  0  0  0  0  0
    2.5850    3.0260   -9.0590 C   0  0  0  0  0  0  0  0  0  0  0  0
    3.2850    2.9380   -8.2280 H   0  0  0  0  0  0  0  0  0  0  0  0
    2.5440    4.0640   -9.3890 H   0  0  0  0  0  0  0  0  0  0  0  0
    1.2080    2.6210   -8.5730 C   0  0  0  0  0  0  0  0  0  0  0  0
    0.7530    3.4710   -8.0650 H   0  0  0  0  0  0  0  0  0  0  0  0
    0.6000    2.3470   -9.4350 H   0  0  0  0  0  0  0  0  0  0  0  0
    1.2480    1.4500   -7.6160 C   0  0  0  0  0  0  0  0  0  0  0  0
    2.1300    1.5540   -6.9850 H   0  0  0  0  0  0  0  0  0  0  0  0
    1.3270    0.5330   -8.2000 H   0  0  0  0  0  0  0  0  0  0  0  0
    0.0220    1.3380   -6.7120 N   0  0  0  0  0  4  0  0  0  0  0  0
   -0.0630    2.2000   -6.1370 H   0  0  0  0  0  0  0  0  0  0  0  0
   -0.8300    1.2250   -7.2980 H   0  0  0  0  0  0  0  0  0  0  0  0
    0.1270    0.5130   -6.0880 H   0  0  0  0  0  0  0  0  0  0  0  0
    3.8150    5.3320  -11.1570 N   0  0  0  0  0  0  0  0  0  0  0  0
    4.3440    5.3460  -10.2620 H   0  0  0  0  0  0  0  0  0  0  0  0
    3.4060    6.5700  -11.7600 C   0  0  2  0  0  0  0  0  0  0  0  0
    2.6010    6.3500  -12.4610 H   0  0  0  0  0  0  0  0  0  0  0  0
    4.5830    7.2000  -12.5340 C   0  0  0  0  0  3  0  0  0  0  0  0
    4.3900    7.6850  -13.6440 O   0  0  0  0  0  0  0  0  0  0  0  0
    2.8330    7.5740  -10.6990 C   0  0  0  0  0  0  0  0  0  0  0  0
    1.7520    7.4410  -10.6510 H   0  0  0  0  0  0  0  0  0  0  0  0
    3.2710    7.3350   -9.7300 H   0  0  0  0  0  0  0  0  0  0  0  0
    3.1220    9.0400  -11.0060 C   0  0  0  0  0  0  0  0  0  0  0  0
    2.4190    9.6990  -11.9770 C   0  0  0  0  0  0  0  0  0  0  0  0
    1.6340    9.1740  -12.5200 H   0  0  0  0  0  0  0  0  0  0  0  0
    4.1580    9.7400  -10.3510 C   0  0  0  0  0  0  0  0  0  0  0  0
    4.7460    9.2230   -9.5930 H   0  0  0  0  0  0  0  0  0  0  0  0
    2.7000   11.0760  -12.2930 C   0  0  0  0  0  0  0  0  0  0  0  0
    2.1060   11.5870  -13.0510 H   0  0  0  0  0  0  0  0  0  0  0  0
    4.4620   11.1120  -10.6520 C   0  0  0  0  0  0  0  0  0  0  0  0
    5.2550   11.6380  -10.1200 H   0  0  0  0  0  0  0  0  0  0  0  0
    3.7150   11.7570  -11.6450 C   0  0  0  0  0  0  0  0  0  0  0  0
    3.9630   13.0750  -12.0290 O   0  0  0  0  0  0  0  0  0  0  0  0
    3.3260   13.3360  -12.7410 H   0  0  0  0  0  0  0  0  0  0  0  0
   10.9780    6.3050   -4.9480 N   0  0  0  0  0  2  0  0  0  0  0  0
   10.1880    5.9880   -5.5450 H   0  0  0  0  0  0  0  0  0  0  0  0
   10.7200    6.5580   -3.5270 C   0  0  2  0  0  0  0  0  0  0  0  0
   10.9690    7.6020   -3.3390 H   0  0  0  0  0  0  0  0  0  0  0  0
   11.6250    5.7190   -2.6400 C   0  0  0  0  0  3  0  0  0  0  0  0
   12.2670    6.2920   -1.7970 O   0  0  0  0  0  0  0  0  0  0  0  0
    9.2040    6.4100   -3.1540 C   0  0  0  0  0  0  0  0  0  0  0  0
    8.6640    7.2090   -3.6620 H   0  0  0  0  0  0  0  0  0  0  0  0
    8.8680    5.4460   -3.5360 H   0  0  0  0  0  0  0  0  0  0  0  0
    8.8060    6.4750   -1.6050 C   0  0  0  0  0  0  0  0  0  0  0  0
    9.0730    5.5270   -1.1380 H   0  0  0  0  0  0  0  0  0  0  0  0
    9.3690    7.2810   -1.1350 H   0  0  0  0  0  0  0  0  0  0  0  0
    7.2710    6.7340   -1.3710 C   0  0  0  0  0  0  0  0  0  0  0  0
    6.9860    6.4380   -0.3620 H   0  0  0  0  0  0  0  0  0  0  0  0
    6.6770    6.1740   -2.0940 H   0  0  0  0  0  0  0  0  0  0  0  0
    7.0740    8.1750   -1.5550 N   0  0  0  0  0  0  0  0  0  0  0  0
    7.9010    8.7810   -1.3810 H   0  0  0  0  0  0  0  0  0  0  0  0
    5.9530    8.7950   -1.9200 C   0  0  0  0  0  0  0  0  0  0  0  0
    4.8300    8.1290   -2.1550 N   0  0  0  0  0  4  0  0  0  0  0  0
    4.8090    7.0940   -2.0560 H   0  0  0  0  0  0  0  0  0  0  0  0
    3.9710    8.6420   -2.4390 H   0  0  0  0  0  0  0  0  0  0  0  0
    5.9750   10.1110   -2.0680 N   0  0  0  0  0  0  0  0  0  0  0  0
    6.8550   10.6390   -1.9000 H   0  0  0  0  0  0  0  0  0  0  0  0
    5.1120   10.6170   -2.3520 H   0  0  0  0  0  0  0  0  0  0  0  0
   11.6800   13.6970    2.1500 N   0  0  0  0  0  2  0  0  0  0  0  0
   11.0060   14.3750    1.7400 H   0  0  0  0  0  0  0  0  0  0  0  0
   12.3750   12.7460    1.2760 C   0  0  2  0  0  0  0  0  0  0  0  0
   12.5890   11.8420    1.8460 H   0  0  0  0  0  0  0  0  0  0  0  0
   13.6730   13.4000    0.7880 C   0  0  0  0  0  3  0  0  0  0  0  0
   13.6690   14.3550    0.0170 O   0  0  0  0  0  0  0  0  0  0  0  0
   11.5200   12.3200    0.0890 C   0  0  0  0  0  0  0  0  0  0  0  0
   11.3570   13.1990   -0.5350 H   0  0  0  0  0  0  0  0  0  0  0  0
   12.0810   11.5750   -0.4740 H   0  0  0  0  0  0  0  0  0  0  0  0
   10.1640   11.7270    0.4160 C   0  0  0  0  0  0  0  0  0  0  0  0
   10.0310   10.3500    0.7370 C   0  0  0  0  0  0  0  0  0  0  0  0
   10.9170    9.7150    0.7680 H   0  0  0  0  0  0  0  0  0  0  0  0
    9.0060   12.5450    0.3790 C   0  0  0  0  0  0  0  0  0  0  0  0
    9.1020   13.6000    0.1210 H   0  0  0  0  0  0  0  0  0  0  0  0
    8.7740    9.8000    1.0140 C   0  0  0  0  0  0  0  0  0  0  0  0
    8.6750    8.7420    1.2580 H   0  0  0  0  0  0  0  0  0  0  0  0
    7.7410   12.0170    0.6690 C   0  0  0  0  0  0  0  0  0  0  0  0
    6.8570   12.6550    0.6610 H   0  0  0  0  0  0  0  0  0  0  0  0
    7.6340   10.6360    0.9730 C   0  0  0  0  0  0  0  0  0  0  0  0
    6.3730   10.1120    1.2340 O   0  0  0  0  0  0  0  0  0  0  0  0
    6.4530    9.1450    1.4290 H   0  0  0  0  0  0  0  0  0  0  0  0
    6.8140   13.4770   -8.2220 H   0  0  0  0  0  0  0  0  0  0  0  0
   -8.7350    4.5970   -6.3320 H   0  0  0  0  0  0  0  0  0  0  0  0
  1  2  1  0
  1  3  1  0
  3  4  1  6
  3  5  1  0
  3  7  1  0
  5  6  2  0
  7  8  1  0
  7  9  1  0
  7 10  1  0
 10 11  2  0
 10 12  1  0
 12250  1  0
 13 14  1  0
 13 15  1  0
 15 16  1  6
 15 17  1  0
 15 19  1  0
 17 18  2  0
 17 24  1  0
 19 20  1  0
 19 21  1  0
 19 22  1  0
 22 23  1  0
 24 25  1  0
 24 26  1  0
 26 27  1  1
 26 28  1  0
 26 30  1  0
 28 29  2  0
 28 35  1  0
 30 31  1  0
 30 32  1  0
 30 33  1  0
 33 34  1  0
 35 36  1  0
 35 37  1  0
 37 38  1  6
 37 39  1  0
 37 41  1  0
 39 40  2  0
 41 42  1  0
 41 43  1  0
 41 44  1  0
 44 45  2  0
 44 47  1  0
 45 46  1  0
 45 49  1  0
 47 48  1  0
 47 51  2  0
 49 50  1  0
 49 53  2  0
 51 52  1  0
 51 53  1  0
 53 54  1  0
 55 56  1  0
 55 57  1  0
 57 58  1  6
 57 59  1  0
 57 61  1  0
 59 60  2  0
 61 62  1  0
 61 63  1  0
 61 67  1  0
 63 64  1  0
 63 65  1  0
 63 66  1  0
 67 68  1  0
 67 69  1  0
 67 70  1  0
 71 72  1  0
 71 73  1  0
 73 74  1  1
 73 75  1  0
 73 77  1  0
 75 76  2  0
 77 78  1  6
 77 79  1  0
 77 82  1  0
 79 80  1  0
 79 81  1  0
 79 86  1  0
 82 83  1  0
 82 84  1  0
 82 85  1  0
 86 87  1  0
 86 88  1  0
 86 89  1  0
 90 91  1  0
 90 92  1  0
 92 93  1  6
 92 94  1  0
 92 96  1  0
 94 95  2  0
 96 97  1  0
 96 98  1  0
 96 99  1  0
 99100  1  0
 99101  2  0
100103  2  0
101102  1  0
101105  1  0
103104  1  0
103105  1  0
105251  1  0
106107  1  0
106108  1  0
108109  1  1
108110  1  0
108112  1  0
110111  2  0
112113  1  0
112114  1  0
112118  1  0
114115  1  0
114116  1  0
114117  1  0
118119  1  0
118120  1  0
118121  1  0
122123  1  0
122124  1  0
124125  1  1
124126  1  0
124128  1  0
126127  2  0
126132  1  0
128129  1  0
128130  1  0
128131  1  0
132133  1  0
132134  1  0
134135  1  1
134136  1  0
134138  1  0
136137  2  0
136143  1  0
138139  1  0
138140  1  0
138141  1  0
141142  1  0
143144  1  0
143145  1  0
145146  1  1
145147  1  0
145149  1  0
147148  2  0
149150  1  0
149151  1  0
149152  1  0
152153  1  0
152154  1  0
152158  1  0
154155  1  0
154156  1  0
154157  1  0
158159  1  0
158160  1  0
158161  1  0
162163  1  0
162164  1  0
164165  1  6
164166  1  0
164168  1  0
166167  2  0
166184  1  0
168169  1  0
168170  1  0
168171  1  0
171172  1  0
171173  1  0
171174  1  0
174175  1  0
174176  1  0
174177  1  0
177178  1  0
177179  1  0
177180  1  0
180181  1  0
180182  1  0
180183  1  0
184185  1  0
184186  1  0
186187  1  6
186188  1  0
186190  1  0
188189  2  0
190191  1  0
190192  1  0
190193  1  0
193194  2  0
193196  1  0
194195  1  0
194198  1  0
196197  1  0
196200  2  0
198199  1  0
198202  2  0
200201  1  0
200202  1  0
202203  1  0
203204  1  0
205206  1  0
205207  1  0
207208  1  6
207209  1  0
207211  1  0
209210  2  0
211212  1  0
211213  1  0
211214  1  0
214215  1  0
214216  1  0
214217  1  0
217218  1  0
217219  1  0
217220  1  0
220221  1  0
220222  1  0
222223  2  0
222226  1  0
223224  1  0
223225  1  0
226227  1  0
226228  1  0
229230  1  0
229231  1  0
231232  1  1
231233  1  0
231235  1  0
233234  2  0
235236  1  0
235237  1  0
235238  1  0
238239  2  0
238241  1  0
239240  1  0
239243  1  0
241242  1  0
241245  2  0
243244  1  0
243247  2  0
245246  1  0
245247  1  0
247248  1  0
248249  1  0
M  RAD  8   1   2   5   2  13   2  39   2  55   2  59   2  71   2  75   2
M  RAD  8  90   2  94   2 106   2 110   2 122   2 147   2 162   2 188   2
M  CHG  2 180   1 223   1
M  RAD  4 205   2 209   2 229   2 233   2
M  END
$$$$

     RDKit          3D

251245  0  0  0  0  0  0  0  0999 V2000
    8.2390   15.7430  -10.2460 N   0  0  0  0  0  2  0  0  0  0  0  0
    8.4060   14.8450   -9.7480 H   0  0  0  0  0  0  0  0  0  0  0  0
    7.1270   16.5820   -9.8330 C   0  0  2  0  0  0  0  0  0  0  0  0
    6.5240   16.7530  -10.7240 H   0  0  0  0  0  0  0  0  0  0  0  0
    7.5010   17.9630   -9.3590 C   0  0  0  0  0  3  0  0  0  0  0  0
    8.3130   18.1090   -8.4540 O   0  0  0  0  0  0  0  0  0  0  0  0
    6.3630   15.8620   -8.7680 C   0  0  0  0  0  0  0  0  0  0  0  0
    7.0440   15.5910   -7.9610 H   0  0  0  0  0  0  0  0  0  0  0  0
    5.5850   16.5200   -8.3800 H   0  0  0  0  0  0  0  0  0  0  0  0
    5.7360   14.6350   -9.3040 C   0  0  0  0  0  0  0  0  0  0  0  0
    4.8520   14.7920  -10.1880 O   0  0  0  0  0  0  0  0  0  0  0  0
    6.1520   13.5130   -8.8840 O   0  0  0  0  0  0  0  0  0  0  0  0
    1.6580   16.8130  -11.9920 N   0  0  0  0  0  2  0  0  0  0  0  0
    2.3630   16.6600  -11.2430 H   0  0  0  0  0  0  0  0  0  0  0  0
    0.5750   15.8710  -12.1280 C   0  0  2  0  0  0  0  0  0  0  0  0
    0.1290   15.9910  -13.1150 H   0  0  0  0  0  0  0  0  0  0  0  0
   -0.5220   16.1130  -11.1130 C   0  0  0  0  0  0  0  0  0  0  0  0
   -0.2990   16.7340  -10.0760 O   0  0  0  0  0  0  0  0  0  0  0  0
    1.1300   14.4960  -11.9520 C   0  0  0  0  0  0  0  0  0  0  0  0
    0.3140   13.7740  -11.9180 H   0  0  0  0  0  0  0  0  0  0  0  0
    1.6970   14.4460  -11.0220 H   0  0  0  0  0  0  0  0  0  0  0  0
    1.9940   14.1960  -13.0610 O   0  0  0  0  0  0  0  0  0  0  0  0
    2.3660   13.2850  -12.9510 H   0  0  0  0  0  0  0  0  0  0  0  0
   -1.7070   15.5990  -11.3820 N   0  0  0  0  0  0  0  0  0  0  0  0
   -1.8300   15.0390  -12.2500 H   0  0  0  0  0  0  0  0  0  0  0  0
   -2.8500   15.7940  -10.4960 C   0  0  2  0  0  0  0  0  0  0  0  0
   -2.4940   15.6940   -9.4710 H   0  0  0  0  0  0  0  0  0  0  0  0
   -3.9360   14.7420  -10.7100 C   0  0  0  0  0  0  0  0  0  0  0  0
   -4.1170   14.2150  -11.8220 O   0  0  0  0  0  0  0  0  0  0  0  0
   -3.4310   17.1680  -10.7260 C   0  0  0  0  0  0  0  0  0  0  0  0
   -3.6970   17.2780  -11.7770 H   0  0  0  0  0  0  0  0  0  0  0  0
   -2.6920   17.9230  -10.4590 H   0  0  0  0  0  0  0  0  0  0  0  0
   -4.5930   17.3400   -9.9250 O   0  0  0  0  0  0  0  0  0  0  0  0
   -4.9690   18.2430  -10.0800 H   0  0  0  0  0  0  0  0  0  0  0  0
   -4.6520   14.4140   -9.6350 N   0  0  0  0  0  0  0  0  0  0  0  0
   -4.3590   14.7920   -8.7110 H   0  0  0  0  0  0  0  0  0  0  0  0
   -5.8320   13.5460   -9.6910 C   0  0  2  0  0  0  0  0  0  0  0  0
   -5.6450   12.7780  -10.4420 H   0  0  0  0  0  0  0  0  0  0  0  0
   -7.0770   14.3290  -10.1220 C   0  0  0  0  0  3  0  0  0  0  0  0
   -8.0250   13.7390  -10.5890 O   0  0  0  0  0  0  0  0  0  0  0  0
   -6.0610   12.8570   -8.3570 C   0  0  0  0  0  0  0  0  0  0  0  0
   -5.9730   13.6020   -7.5670 H   0  0  0  0  0  0  0  0  0  0  0  0
   -7.0700   12.4440   -8.3540 H   0  0  0  0  0  0  0  0  0  0  0  0
   -5.0730   11.7210   -8.0610 C   0  0  0  0  0  0  0  0  0  0  0  0
   -4.0720   11.8810   -7.1020 C   0  0  0  0  0  0  0  0  0  0  0  0
   -3.9860   12.8270   -6.5670 H   0  0  0  0  0  0  0  0  0  0  0  0
   -5.1740   10.4980   -8.7080 C   0  0  0  0  0  0  0  0  0  0  0  0
   -5.9560   10.3530   -9.4530 H   0  0  0  0  0  0  0  0  0  0  0  0
   -3.1820   10.8480   -6.8190 C   0  0  0  0  0  0  0  0  0  0  0  0
   -2.4060   10.9870   -6.0660 H   0  0  0  0  0  0  0  0  0  0  0  0
   -4.2920    9.4420   -8.4250 C   0  0  0  0  0  0  0  0  0  0  0  0
   -4.4060    8.4830   -8.9310 H   0  0  0  0  0  0  0  0  0  0  0  0
   -3.2860    9.6220   -7.5080 C   0  0  0  0  0  0  0  0  0  0  0  0
   -2.5720    8.8220   -7.3140 H   0  0  0  0  0  0  0  0  0  0  0  0
   -3.3140    5.0230  -13.0570 N   0  0  0  0  0  2  0  0  0  0  0  0
   -4.1400    5.6150  -12.8370 H   0  0  0  0  0  0  0  0  0  0  0  0
   -2.5170    4.4610  -11.9940 C   0  0  2  0  0  0  0  0  0  0  0  0
   -1.7250    3.8470  -12.4230 H   0  0  0  0  0  0  0  0  0  0  0  0
   -3.4380    3.6400  -11.1070 C   0  0  0  0  0  3  0  0  0  0  0  0
   -4.4710    4.1900  -10.6370 O   0  0  0  0  0  0  0  0  0  0  0  0
   -1.8540    5.5840  -11.1350 C   0  0  0  0  0  0  0  0  0  0  0  0
   -2.6490    6.2450  -10.7900 H   0  0  0  0  0  0  0  0  0  0  0  0
   -1.1450    4.9970   -9.9330 C   0  0  0  0  0  0  0  0  0  0  0  0
   -1.8650    4.4610   -9.3150 H   0  0  0  0  0  0  0  0  0  0  0  0
   -0.3700    4.3090  -10.2700 H   0  0  0  0  0  0  0  0  0  0  0  0
   -0.6920    5.8000   -9.3520 H   0  0  0  0  0  0  0  0  0  0  0  0
   -0.8790    6.3820  -11.9530 C   0  0  0  0  0  0  0  0  0  0  0  0
   -0.0980    5.7220  -12.3300 H   0  0  0  0  0  0  0  0  0  0  0  0
   -1.4020    6.8440  -12.7900 H   0  0  0  0  0  0  0  0  0  0  0  0
   -0.4320    7.1570  -11.3300 H   0  0  0  0  0  0  0  0  0  0  0  0
   -4.5210    2.0210   -7.7850 N   0  0  0  0  0  2  0  0  0  0  0  0
   -5.4600    2.1270   -8.2190 H   0  0  0  0  0  0  0  0  0  0  0  0
   -4.3760    2.2860   -6.3400 C   0  0  2  0  0  0  0  0  0  0  0  0
   -3.3700    1.9630   -6.0710 H   0  0  0  0  0  0  0  0  0  0  0  0
   -5.3740    1.4700   -5.5200 C   0  0  0  0  0  3  0  0  0  0  0  0
   -6.6090    1.7400   -5.5300 O   0  0  0  0  0  0  0  0  0  0  0  0
   -4.4620    3.8040   -5.9870 C   0  0  2  0  0  0  0  0  0  0  0  0
   -5.4400    4.1780   -6.2900 H   0  0  0  0  0  0  0  0  0  0  0  0
   -3.3750    4.5860   -6.7450 C   0  0  0  0  0  0  0  0  0  0  0  0
   -2.4260    4.4330   -6.2310 H   0  0  0  0  0  0  0  0  0  0  0  0
   -3.3090    4.1820   -7.7550 H   0  0  0  0  0  0  0  0  0  0  0  0
   -4.3050    4.0130   -4.4580 C   0  0  0  0  0  0  0  0  0  0  0  0
   -5.1000    3.4810   -3.9360 H   0  0  0  0  0  0  0  0  0  0  0  0
   -3.3370    3.6280   -4.1370 H   0  0  0  0  0  0  0  0  0  0  0  0
   -4.3670    5.0770   -4.2300 H   0  0  0  0  0  0  0  0  0  0  0  0
   -3.6210    6.0930   -6.8510 C   0  0  0  0  0  0  0  0  0  0  0  0
   -4.5590    6.2710   -7.3760 H   0  0  0  0  0  0  0  0  0  0  0  0
   -3.6760    6.5220   -5.8510 H   0  0  0  0  0  0  0  0  0  0  0  0
   -2.8020    6.5560   -7.4010 H   0  0  0  0  0  0  0  0  0  0  0  0
   -7.1030    4.9550  -11.2140 N   0  0  0  0  0  2  0  0  0  0  0  0
   -6.1220    4.6450  -11.0650 H   0  0  0  0  0  0  0  0  0  0  0  0
   -7.3690    6.3930  -11.2260 C   0  0  2  0  0  0  0  0  0  0  0  0
   -8.4260    6.5500  -11.4390 H   0  0  0  0  0  0  0  0  0  0  0  0
   -6.5510    7.1110  -12.3230 C   0  0  0  0  0  3  0  0  0  0  0  0
   -5.3670    6.8340  -12.4820 O   0  0  0  0  0  0  0  0  0  0  0  0
   -6.9990    6.9690   -9.8590 C   0  0  0  0  0  0  0  0  0  0  0  0
   -5.9460    6.7590   -9.6690 H   0  0  0  0  0  0  0  0  0  0  0  0
   -7.1550    8.0480   -9.8840 H   0  0  0  0  0  0  0  0  0  0  0  0
   -7.8100    6.3970   -8.7320 C   0  0  0  0  0  0  0  0  0  0  0  0
   -9.1120    6.7880   -8.4820 N   0  0  0  0  0  0  0  0  0  0  0  0
   -7.5200    5.4300   -7.8250 C   0  0  0  0  0  0  0  0  0  0  0  0
   -6.5730    4.9000   -7.7210 H   0  0  0  0  0  0  0  0  0  0  0  0
   -9.5840    6.0790   -7.4730 C   0  0  0  0  0  0  0  0  0  0  0  0
  -10.5840    6.1660   -7.0470 H   0  0  0  0  0  0  0  0  0  0  0  0
   -8.6430    5.2470   -7.0660 N   0  0  0  0  0  0  0  0  0  0  0  0
   -4.3430    9.9870  -13.8600 N   0  0  0  0  0  2  0  0  0  0  0  0
   -3.9430    9.2670  -14.4950 H   0  0  0  0  0  0  0  0  0  0  0  0
   -3.4660   11.0950  -13.4060 C   0  0  2  0  0  0  0  0  0  0  0  0
   -3.9980   11.6020  -12.6010 H   0  0  0  0  0  0  0  0  0  0  0  0
   -3.1980   12.0700  -14.5610 C   0  0  0  0  0  3  0  0  0  0  0  0
   -2.6940   11.6660  -15.6100 O   0  0  0  0  0  0  0  0  0  0  0  0
   -2.1230   10.5980  -12.8370 C   0  0  0  0  0  0  0  0  0  0  0  0
   -1.6160   10.0380  -13.6230 H   0  0  0  0  0  0  0  0  0  0  0  0
   -1.2160   11.7770  -12.4230 C   0  0  0  0  0  0  0  0  0  0  0  0
   -1.0140   12.4010  -13.2930 H   0  0  0  0  0  0  0  0  0  0  0  0
   -1.7190   12.3690  -11.6580 H   0  0  0  0  0  0  0  0  0  0  0  0
   -0.2780   11.3900  -12.0260 H   0  0  0  0  0  0  0  0  0  0  0  0
   -2.3600    9.6900  -11.6480 C   0  0  0  0  0  0  0  0  0  0  0  0
   -2.8940   10.2400  -10.8730 H   0  0  0  0  0  0  0  0  0  0  0  0
   -2.9540    8.8310  -11.9610 H   0  0  0  0  0  0  0  0  0  0  0  0
   -1.4020    9.3470  -11.2570 H   0  0  0  0  0  0  0  0  0  0  0  0
   10.6540   11.3050   -5.5760 N   0  0  0  0  0  2  0  0  0  0  0  0
   10.3920   12.2850   -5.8030 H   0  0  0  0  0  0  0  0  0  0  0  0
   10.0940   10.6720   -4.3490 C   0  0  2  0  0  0  0  0  0  0  0  0
   10.8680    9.9920   -3.9930 H   0  0  0  0  0  0  0  0  0  0  0  0
    8.8430    9.8410   -4.6350 C   0  0  0  0  0  0  0  0  0  0  0  0
    8.3760    9.1070   -3.7350 O   0  0  0  0  0  0  0  0  0  0  0  0
    9.8210   11.6790   -3.2540 C   0  0  0  0  0  0  0  0  0  0  0  0
   10.7510   12.1790   -2.9810 H   0  0  0  0  0  0  0  0  0  0  0  0
    9.1020   12.4160   -3.6110 H   0  0  0  0  0  0  0  0  0  0  0  0
    9.4140   11.1650   -2.3830 H   0  0  0  0  0  0  0  0  0  0  0  0
    8.3280    9.9240   -5.8760 N   0  0  0  0  0  0  0  0  0  0  0  0
    8.8050   10.5390   -6.5650 H   0  0  0  0  0  0  0  0  0  0  0  0
    7.1420    9.2010   -6.3060 C   0  0  2  0  0  0  0  0  0  0  0  0
    6.4000    9.3360   -5.5190 H   0  0  0  0  0  0  0  0  0  0  0  0
    7.4250    7.7530   -6.4980 C   0  0  0  0  0  0  0  0  0  0  0  0
    8.5700    7.2700   -6.4620 O   0  0  0  0  0  0  0  0  0  0  0  0
    6.6180    9.7450   -7.6390 C   0  0  0  0  0  0  0  0  0  0  0  0
    5.6190    9.3460   -7.8150 H   0  0  0  0  0  0  0  0  0  0  0  0
    7.2840    9.4210   -8.4390 H   0  0  0  0  0  0  0  0  0  0  0  0
    6.5530   11.1910   -7.6390 O   0  0  0  0  0  0  0  0  0  0  0  0
    6.2110   11.5050   -8.5140 H   0  0  0  0  0  0  0  0  0  0  0  0
    6.3550    7.0580   -6.8100 N   0  0  0  0  0  0  0  0  0  0  0  0
    5.4610    7.5640   -6.9720 H   0  0  0  0  0  0  0  0  0  0  0  0
    6.3700    5.6400   -6.9350 C   0  0  2  0  0  0  0  0  0  0  0  0
    7.1620    5.1570   -6.3640 H   0  0  0  0  0  0  0  0  0  0  0  0
    6.5790    5.3360   -8.4090 C   0  0  0  0  0  3  0  0  0  0  0  0
    6.0940    6.0730   -9.2600 O   0  0  0  0  0  0  0  0  0  0  0  0
    5.0220    5.1190   -6.4090 C   0  0  0  0  0  0  0  0  0  0  0  0
    4.2350    5.7010   -6.8870 H   0  0  0  0  0  0  0  0  0  0  0  0
    4.9330    4.0750   -6.7090 H   0  0  0  0  0  0  0  0  0  0  0  0
    4.7900    5.1880   -4.8740 C   0  0  0  0  0  0  0  0  0  0  0  0
    5.0100    6.2120   -4.5710 H   0  0  0  0  0  0  0  0  0  0  0  0
    3.3110    4.7880   -4.5700 C   0  0  0  0  0  0  0  0  0  0  0  0
    2.6380    5.4790   -5.0770 H   0  0  0  0  0  0  0  0  0  0  0  0
    3.1300    3.7740   -4.9260 H   0  0  0  0  0  0  0  0  0  0  0  0
    3.1370    4.8330   -3.4950 H   0  0  0  0  0  0  0  0  0  0  0  0
    5.7270    4.2640   -4.0560 C   0  0  0  0  0  0  0  0  0  0  0  0
    5.5710    3.2290   -4.3610 H   0  0  0  0  0  0  0  0  0  0  0  0
    6.7640    4.5460   -4.2400 H   0  0  0  0  0  0  0  0  0  0  0  0
    5.5030    4.3690   -2.9940 H   0  0  0  0  0  0  0  0  0  0  0  0
    5.3050    3.2970  -10.3550 N   0  0  0  0  0  2  0  0  0  0  0  0
    5.3190    3.2100   -9.3190 H   0  0  0  0  0  0  0  0  0  0  0  0
    4.1120    2.9140  -11.0930 C   0  0  2  0  0  0  0  0  0  0  0  0
    4.3770    2.2010  -11.8730 H   0  0  0  0  0  0  0  0  0  0  0  0
    3.5250    4.1710  -11.7290 C   0  0  0  0  0  0  0  0  0  0  0  0
    2.8290    4.0740  -12.7370 O   0  0  0  0  0  0  0  0  0  0  0  0
    3.0890    2.1810  -10.2000 C   0  0  0  0  0  0  0  0  0  0  0  0
    2.2390    1.8870  -10.8160 H   0  0  0  0  0  0  0  0  0  0  0  0
    3.5630    1.2900   -9.7890 H   0  0  0  0  0  0  0  0  0  0  0  0
    2.5850    3.0260   -9.0590 C   0  0  0  0  0  0  0  0  0  0  0  0
    3.2850    2.9380   -8.2280 H   0  0  0  0  0  0  0  0  0  0  0  0
    2.5440    4.0640   -9.3890 H   0  0  0  0  0  0  0  0  0  0  0  0
    1.2080    2.6210   -8.5730 C   0  0  0  0  0  0  0  0  0  0  0  0
    0.7530    3.4710   -8.0650 H   0  0  0  0  0  0  0  0  0  0  0  0
    0.6000    2.3470   -9.4350 H   0  0  0  0  0  0  0  0  0  0  0  0
    1.2480    1.4500   -7.6160 C   0  0  0  0  0  0  0  0  0  0  0  0
    2.1300    1.5540   -6.9850 H   0  0  0  0  0  0  0  0  0  0  0  0
    1.3270    0.5330   -8.2000 H   0  0  0  0  0  0  0  0  0  0  0  0
    0.0220    1.3380   -6.7120 N   0  0  0  0  0  4  0  0  0  0  0  0
   -0.0630    2.2000   -6.1370 H   0  0  0  0  0  0  0  0  0  0  0  0
   -0.8300    1.2250   -7.2980 H   0  0  0  0  0  0  0  0  0  0  0  0
    0.1270    0.5130   -6.0880 H   0  0  0  0  0  0  0  0  0  0  0  0
    3.8150    5.3320  -11.1570 N   0  0  0  0  0  0  0  0  0  0  0  0
    4.3440    5.3460  -10.2620 H   0  0  0  0  0  0  0  0  0  0  0  0
    3.4060    6.5700  -11.7600 C   0  0  2  0  0  0  0  0  0  0  0  0
    2.6010    6.3500  -12.4610 H   0  0  0  0  0  0  0  0  0  0  0  0
    4.5830    7.2000  -12.5340 C   0  0  0  0  0  3  0  0  0  0  0  0
    4.3900    7.6850  -13.6440 O   0  0  0  0  0  0  0  0  0  0  0  0
    2.8330    7.5740  -10.6990 C   0  0  0  0  0  0  0  0  0  0  0  0
    1.7520    7.4410  -10.6510 H   0  0  0  0  0  0  0  0  0  0  0  0
    3.2710    7.3350   -9.7300 H   0  0  0  0  0  0  0  0  0  0  0  0
    3.1220    9.0400  -11.0060 C   0  0  0  0  0  0  0  0  0  0  0  0
    2.4190    9.6990  -11.9770 C   0  0  0  0  0  0  0  0  0  0  0  0
    1.6340    9.1740  -12.5200 H   0  0  0  0  0  0  0  0  0  0  0  0
    4.1580    9.7400  -10.3510 C   0  0  0  0  0  0  0  0  0  0  0  0
    4.7460    9.2230   -9.5930 H   0  0  0  0  0  0  0  0  0  0  0  0
    2.7000   11.0760  -12.2930 C   0  0  0  0  0  0  0  0  0  0  0  0
    2.1060   11.5870  -13.0510 H   0  0  0  0  0  0  0  0  0  0  0  0
    4.4620   11.1120  -10.6520 C   0  0  0  0  0  0  0  0  0  0  0  0
    5.2550   11.6380  -10.1200 H   0  0  0  0  0  0  0  0  0  0  0  0
    3.7150   11.7570  -11.6450 C   0  0  0  0  0  0  0  0  0  0  0  0
    3.9630   13.0750  -12.0290 O   0  0  0  0  0  0  0  0  0  0  0  0
    3.3260   13.3360  -12.7410 H   0  0  0  0  0  0  0  0  0  0  0  0
   10.9780    6.3050   -4.9480 N   0  0  0  0  0  2  0  0  0  0  0  0
   10.1880    5.9880   -5.5450 H   0  0  0  0  0  0  0  0  0  0  0  0
   10.7200    6.5580   -3.5270 C   0  0  2  0  0  0  0  0  0  0  0  0
   10.9690    7.6020   -3.3390 H   0  0  0  0  0  0  0  0  0  0  0  0
   11.6250    5.7190   -2.6400 C   0  0  0  0  0  3  0  0  0  0  0  0
   12.2670    6.2920   -1.7970 O   0  0  0  0  0  0  0  0  0  0  0  0
    9.2040    6.4100   -3.1540 C   0  0  0  0  0  0  0  0  0  0  0  0
    8.6640    7.2090   -3.6620 H   0  0  0  0  0  0  0  0  0  0  0  0
    8.8680    5.4460   -3.5360 H   0  0  0  0  0  0  0  0  0  0  0  0
    8.8060    6.4750   -1.6050 C   0  0  0  0  0  0  0  0  0  0  0  0
    9.0730    5.5270   -1.1380 H   0  0  0  0  0  0  0  0  0  0  0  0
    9.3690    7.2810   -1.1350 H   0  0  0  0  0  0  0  0  0  0  0  0
    7.2710    6.7340   -1.3710 C   0  0  0  0  0  0  0  0  0  0  0  0
    6.9860    6.4380   -0.3620 H   0  0  0  0  0  0  0  0  0  0  0  0
    6.6770    6.1740   -2.0940 H   0  0  0  0  0  0  0  0  0  0  0  0
    7.0740    8.1750   -1.5550 N   0  0  0  0  0  0  0  0  0  0  0  0
    7.9010    8.7810   -1.3810 H   0  0  0  0  0  0  0  0  0  0  0  0
    5.9530    8.7950   -1.9200 C   0  0  0  0  0  0  0  0  0  0  0  0
    4.8300    8.1290   -2.1550 N   0  0  0  0  0  4  0  0  0  0  0  0
    4.8090    7.0940   -2.0560 H   0  0  0  0  0  0  0  0  0  0  0  0
    3.9710    8.6420   -2.4390 H   0  0  0  0  0  0  0  0  0  0  0  0
    5.9750   10.1110   -2.0680 N   0  0  0  0  0  0  0  0  0  0  0  0
    6.8550   10.6390   -1.9000 H   0  0  0  0  0  0  0  0  0  0  0  0
    5.1120   10.6170   -2.3520 H   0  0  0  0  0  0  0  0  0  0  0  0
   11.6800   13.6970    2.1500 N   0  0  0  0  0  2  0  0  0  0  0  0
   11.0060   14.3750    1.7400 H   0  0  0  0  0  0  0  0  0  0  0  0
   12.3750   12.7460    1.2760 C   0  0  2  0  0  0  0  0  0  0  0  0
   12.5890   11.8420    1.8460 H   0  0  0  0  0  0  0  0  0  0  0  0
   13.6730   13.4000    0.7880 C   0  0  0  0  0  3  0  0  0  0  0  0
   13.6690   14.3550    0.0170 O   0  0  0  0  0  0  0  0  0  0  0  0
   11.5200   12.3200    0.0890 C   0  0  0  0  0  0  0  0  0  0  0  0
   11.3570   13.1990   -0.5350 H   0  0  0  0  0  0  0  0  0  0  0  0
   12.0810   11.5750   -0.4740 H   0  0  0  0  0  0  0  0  0  0  0  0
   10.1640   11.7270    0.4160 C   0  0  0  0  0  0  0  0  0  0  0  0
   10.0310   10.3500    0.7370 C   0  0  0  0  0  0  0  0  0  0  0  0
   10.9170    9.7150    0.7680 H   0  0  0  0  0  0  0  0  0  0  0  0
    9.0060   12.5450    0.3790 C   0  0  0  0  0  0  0  0  0  0  0  0
    9.1020   13.6000    0.1210 H   0  0  0  0  0  0  0  0  0  0  0  0
    8.7740    9.8000    1.0140 C   0  0  0  0  0  0  0  0  0  0  0  0
    8.6750    8.7420    1.2580 H   0  0  0  0  0  0  0  0  0  0  0  0
    7.7410   12.0170    0.6690 C   0  0  0  0  0  0  0  0  0  0  0  0
    6.8570   12.6550    0.6610 H   0  0  0  0  0  0  0  0  0  0  0  0
    7.6340   10.6360    0.9730 C   0  0  0  0  0  0  0  0  0  0  0  0
    6.3730   10.1120    1.2340 O   0  0  0  0  0  0  0  0  0  0  0  0
    6.4530    9.1450    1.4290 H   0  0  0  0  0  0  0  0  0  0  0  0
    6.8140   13.4770   -8.2220 H   0  0  0  0  0  0  0  0  0  0  0  0
   -8.7350    4.5970   -6.3320 H   0  0  0  0  0  0  0  0  0  0  0  0
  1  2  1  0
  1  3  1  0
  3  4  1  6
  3  5  1  0
  3  7  1  0
  5  6  2  0
  7  8  1  0
  7  9  1  0
  7 10  1  0
 10 11  2  0
 10 12  1  0
 12250  1  0
 13 14  1  0
 13 15  1  0
 15 16  1  6
 15 17  1  0
 15 19  1  0
 17 18  2  0
 17 24  1  0
 19 20  1  0
 19 21  1  0
 19 22  1  0
 22 23  1  0
 24 25  1  0
 24 26  1  0
 26 27  1  1
 26 28  1  0
 26 30  1  0
 28 29  2  0
 28 35  1  0
 30 31  1  0
 30 32  1  0
 30 33  1  0
 33 34  1  0
 35 36  1  0
 35 37  1  0
 37 38  1  6
 37 39  1  0
 37 41  1  0
 39 40  2  0
 41 42  1  0
 41 43  1  0
 41 44  1  0
 44 45  2  0
 44 47  1  0
 45 46  1  0
 45 49  1  0
 47 48  1  0
 47 51  2  0
 49 50  1  0
 49 53  2  0
 51 52  1  0
 51 53  1  0
 53 54  1  0
 55 56  1  0
 55 57  1  0
 57 58  1  6
 57 59  1  0
 57 61  1  0
 59 60  2  0
 61 62  1  0
 61 63  1  0
 61 67  1  0
 63 64  1  0
 63 65  1  0
 63 66  1  0
 67 68  1  0
 67 69  1  0
 67 70  1  0
 71 72  1  0
 71 73  1  0
 73 74  1  1
 73 75  1  0
 73 77  1  0
 75 76  2  0
 77 78  1  6
 77 79  1  0
 77 82  1  0
 79 80  1  0
 79 81  1  0
 79 86  1  0
 82 83  1  0
 82 84  1  0
 82 85  1  0
 86 87  1  0
 86 88  1  0
 86 89  1  0
 90 91  1  0
 90 92  1  0
 92 93  1  6
 92 94  1  0
 92 96  1  0
 94 95  2  0
 96 97  1  0
 96 98  1  0
 96 99  1  0
 99100  1  0
 99101  2  0
100103  2  0
101102  1  0
101105  1  0
103104  1  0
103105  1  0
105251  1  0
106107  1  0
106108  1  0
108109  1  1
108110  1  0
108112  1  0
110111  2  0
112113  1  0
112114  1  0
112118  1  0
114115  1  0
114116  1  0
114117  1  0
118119  1  0
118120  1  0
118121  1  0
122123  1  0
122124  1  0
124125  1  1
124126  1  0
124128  1  0
126127  2  0
126132  1  0
128129  1  0
128130  1  0
128131  1  0
132133  1  0
132134  1  0
134135  1  1
134136  1  0
134138  1  0
136137  2  0
136143  1  0
138139  1  0
138140  1  0
138141  1  0
141142  1  0
143144  1  0
143145  1  0
145146  1  1
145147  1  0
145149  1  0
147148  2  0
149150  1  0
149151  1  0
149152  1  0
152153  1  0
152154  1  0
152158  1  0
154155  1  0
154156  1  0
154157  1  0
158159  1  0
158160  1  0
158161  1  0
162163  1  0
162164  1  0
164165  1  6
164166  1  0
164168  1  0
166167  2  0
166184  1  0
168169  1  0
168170  1  0
168171  1  0
171172  1  0
171173  1  0
171174  1  0
174175  1  0
174176  1  0
174177  1  0
177178  1  0
177179  1  0
177180  1  0
180181  1  0
180182  1  0
180183  1  0
184185  1  0
184186  1  0
186187  1  6
186188  1  0
186190  1  0
188189  2  0
190191  1  0
190192  1  0
190193  1  0
193194  2  0
193196  1  0
194195  1  0
194198  1  0
196197  1  0
196200  2  0
198199  1  0
198202  2  0
200201  1  0
200202  1  0
202203  1  0
203204  1  0
205206  1  0
205207  1  0
207208  1  6
207209  1  0
207211  1  0
209210  2  0
211212  1  0
211213  1  0
211214  1  0
214215  1  0
214216  1  0
214217  1  0
217218  1  0
217219  1  0
217220  1  0
220221  1  0
220222  1  0
222223  2  0
222226  1  0
223224  1  0
223225  1  0
226227  1  0
226228  1  0
229230  1  0
229231  1  0
231232  1  1
231233  1  0
231235  1  0
233234  2  0
235236  1  0
235237  1  0
235238  1  0
238239  2  0
238241  1  0
239240  1  0
239243  1  0
241242  1  0
241245  2  0
243244  1  0
243247  2  0
245246  1  0
245247  1  0
247248  1  0
248249  1  0
M  RAD  8   1   2   5   2  13   2  39   2  55   2  59   2  71   2  75   2
M  RAD  8  90   2  94   2 106   2 110   2 122   2 147   2 162   2 188   2
M  CHG  2 180   1 223   1
M  RAD  4 205   2 209   2 229   2 233   2
M  END
$$$$

     RDKit          3D

251245  0  0  0  0  0  0  0  0999 V2000
    8.2390   15.7430  -10.2460 N   0  0  0  0  0  2  0  0  0  0  0  0
    8.4060   14.8450   -9.7480 H   0  0  0  0  0  0  0  0  0  0  0  0
    7.1270   16.5820   -9.8330 C   0  0  2  0  0  0  0  0  0  0  0  0
    6.5240   16.7530  -10.7240 H   0  0  0  0  0  0  0  0  0  0  0  0
    7.5010   17.9630   -9.3590 C   0  0  0  0  0  3  0  0  0  0  0  0
    8.3130   18.1090   -8.4540 O   0  0  0  0  0  0  0  0  0  0  0  0
    6.3630   15.8620   -8.7680 C   0  0  0  0  0  0  0  0  0  0  0  0
    7.0440   15.5910   -7.9610 H   0  0  0  0  0  0  0  0  0  0  0  0
    5.5850   16.5200   -8.3800 H   0  0  0  0  0  0  0  0  0  0  0  0
    5.7360   14.6350   -9.3040 C   0  0  0  0  0  0  0  0  0  0  0  0
    4.8520   14.7920  -10.1880 O   0  0  0  0  0  0  0  0  0  0  0  0
    6.1520   13.5130   -8.8840 O   0  0  0  0  0  0  0  0  0  0  0  0
    1.6580   16.8130  -11.9920 N   0  0  0  0  0  2  0  0  0  0  0  0
    2.3630   16.6600  -11.2430 H   0  0  0  0  0  0  0  0  0  0  0  0
    0.5750   15.8710  -12.1280 C   0  0  2  0  0  0  0  0  0  0  0  0
    0.1290   15.9910  -13.1150 H   0  0  0  0  0  0  0  0  0  0  0  0
   -0.5220   16.1130  -11.1130 C   0  0  0  0  0  0  0  0  0  0  0  0
   -0.2990   16.7340  -10.0760 O   0  0  0  0  0  0  0  0  0  0  0  0
    1.1300   14.4960  -11.9520 C   0  0  0  0  0  0  0  0  0  0  0  0
    0.3140   13.7740  -11.9180 H   0  0  0  0  0  0  0  0  0  0  0  0
    1.6970   14.4460  -11.0220 H   0  0  0  0  0  0  0  0  0  0  0  0
    1.9940   14.1960  -13.0610 O   0  0  0  0  0  0  0  0  0  0  0  0
    2.3660   13.2850  -12.9510 H   0  0  0  0  0  0  0  0  0  0  0  0
   -1.7070   15.5990  -11.3820 N   0  0  0  0  0  0  0  0  0  0  0  0
   -1.8300   15.0390  -12.2500 H   0  0  0  0  0  0  0  0  0  0  0  0
   -2.8500   15.7940  -10.4960 C   0  0  2  0  0  0  0  0  0  0  0  0
   -2.4940   15.6940   -9.4710 H   0  0  0  0  0  0  0  0  0  0  0  0
   -3.9360   14.7420  -10.7100 C   0  0  0  0  0  0  0  0  0  0  0  0
   -4.1170   14.2150  -11.8220 O   0  0  0  0  0  0  0  0  0  0  0  0
   -3.4310   17.1680  -10.7260 C   0  0  0  0  0  0  0  0  0  0  0  0
   -3.6970   17.2780  -11.7770 H   0  0  0  0  0  0  0  0  0  0  0  0
   -2.6920   17.9230  -10.4590 H   0  0  0  0  0  0  0  0  0  0  0  0
   -4.5930   17.3400   -9.9250 O   0  0  0  0  0  0  0  0  0  0  0  0
   -4.9690   18.2430  -10.0800 H   0  0  0  0  0  0  0  0  0  0  0  0
   -4.6520   14.4140   -9.6350 N   0  0  0  0  0  0  0  0  0  0  0  0
   -4.3590   14.7920   -8.7110 H   0  0  0  0  0  0  0  0  0  0  0  0
   -5.8320   13.5460   -9.6910 C   0  0  2  0  0  0  0  0  0  0  0  0
   -5.6450   12.7780  -10.4420 H   0  0  0  0  0  0  0  0  0  0  0  0
   -7.0770   14.3290  -10.1220 C   0  0  0  0  0  3  0  0  0  0  0  0
   -8.0250   13.7390  -10.5890 O   0  0  0  0  0  0  0  0  0  0  0  0
   -6.0610   12.8570   -8.3570 C   0  0  0  0  0  0  0  0  0  0  0  0
   -5.9730   13.6020   -7.5670 H   0  0  0  0  0  0  0  0  0  0  0  0
   -7.0700   12.4440   -8.3540 H   0  0  0  0  0  0  0  0  0  0  0  0
   -5.0730   11.7210   -8.0610 C   0  0  0  0  0  0  0  0  0  0  0  0
   -4.0720   11.8810   -7.1020 C   0  0  0  0  0  0  0  0  0  0  0  0
   -3.9860   12.8270   -6.5670 H   0  0  0  0  0  0  0  0  0  0  0  0
   -5.1740   10.4980   -8.7080 C   0  0  0  0  0  0  0  0  0  0  0  0
   -5.9560   10.3530   -9.4530 H   0  0  0  0  0  0  0  0  0  0  0  0
   -3.1820   10.8480   -6.8190 C   0  0  0  0  0  0  0  0  0  0  0  0
   -2.4060   10.9870   -6.0660 H   0  0  0  0  0  0  0  0  0  0  0  0
   -4.2920    9.4420   -8.4250 C   0  0  0  0  0  0  0  0  0  0  0  0
   -4.4060    8.4830   -8.9310 H   0  0  0  0  0  0  0  0  0  0  0  0
   -3.2860    9.6220   -7.5080 C   0  0  0  0  0  0  0  0  0  0  0  0
   -2.5720    8.8220   -7.3140 H   0  0  0  0  0  0  0  0  0  0  0  0
   -3.3140    5.0230  -13.0570 N   0  0  0  0  0  2  0  0  0  0  0  0
   -4.1400    5.6150  -12.8370 H   0  0  0  0  0  0  0  0  0  0  0  0
   -2.5170    4.4610  -11.9940 C   0  0  2  0  0  0  0  0  0  0  0  0
   -1.7250    3.8470  -12.4230 H   0  0  0  0  0  0  0  0  0  0  0  0
   -3.4380    3.6400  -11.1070 C   0  0  0  0  0  3  0  0  0  0  0  0
   -4.4710    4.1900  -10.6370 O   0  0  0  0  0  0  0  0  0  0  0  0
   -1.8540    5.5840  -11.1350 C   0  0  0  0  0  0  0  0  0  0  0  0
   -2.6490    6.2450  -10.7900 H   0  0  0  0  0  0  0  0  0  0  0  0
   -1.1450    4.9970   -9.9330 C   0  0  0  0  0  0  0  0  0  0  0  0
   -1.8650    4.4610   -9.3150 H   0  0  0  0  0  0  0  0  0  0  0  0
   -0.3700    4.3090  -10.2700 H   0  0  0  0  0  0  0  0  0  0  0  0
   -0.6920    5.8000   -9.3520 H   0  0  0  0  0  0  0  0  0  0  0  0
   -0.8790    6.3820  -11.9530 C   0  0  0  0  0  0  0  0  0  0  0  0
   -0.0980    5.7220  -12.3300 H   0  0  0  0  0  0  0  0  0  0  0  0
   -1.4020    6.8440  -12.7900 H   0  0  0  0  0  0  0  0  0  0  0  0
   -0.4320    7.1570  -11.3300 H   0  0  0  0  0  0  0  0  0  0  0  0
   -4.5210    2.0210   -7.7850 N   0  0  0  0  0  2  0  0  0  0  0  0
   -5.4600    2.1270   -8.2190 H   0  0  0  0  0  0  0  0  0  0  0  0
   -4.3760    2.2860   -6.3400 C   0  0  2  0  0  0  0  0  0  0  0  0
   -3.3700    1.9630   -6.0710 H   0  0  0  0  0  0  0  0  0  0  0  0
   -5.3740    1.4700   -5.5200 C   0  0  0  0  0  3  0  0  0  0  0  0
   -6.6090    1.7400   -5.5300 O   0  0  0  0  0  0  0  0  0  0  0  0
   -4.4620    3.8040   -5.9870 C   0  0  2  0  0  0  0  0  0  0  0  0
   -5.4400    4.1780   -6.2900 H   0  0  0  0  0  0  0  0  0  0  0  0
   -3.3750    4.5860   -6.7450 C   0  0  0  0  0  0  0  0  0  0  0  0
   -2.4260    4.4330   -6.2310 H   0  0  0  0  0  0  0  0  0  0  0  0
   -3.3090    4.1820   -7.7550 H   0  0  0  0  0  0  0  0  0  0  0  0
   -4.3050    4.0130   -4.4580 C   0  0  0  0  0  0  0  0  0  0  0  0
   -5.1000    3.4810   -3.9360 H   0  0  0  0  0  0  0  0  0  0  0  0
   -3.3370    3.6280   -4.1370 H   0  0  0  0  0  0  0  0  0  0  0  0
   -4.3670    5.0770   -4.2300 H   0  0  0  0  0  0  0  0  0  0  0  0
   -3.6210    6.0930   -6.8510 C   0  0  0  0  0  0  0  0  0  0  0  0
   -4.5590    6.2710   -7.3760 H   0  0  0  0  0  0  0  0  0  0  0  0
   -3.6760    6.5220   -5.8510 H   0  0  0  0  0  0  0  0  0  0  0  0
   -2.8020    6.5560   -7.4010 H   0  0  0  0  0  0  0  0  0  0  0  0
   -7.1030    4.9550  -11.2140 N   0  0  0  0  0  2  0  0  0  0  0  0
   -6.1220    4.6450  -11.0650 H   0  0  0  0  0  0  0  0  0  0  0  0
   -7.3690    6.3930  -11.2260 C   0  0  2  0  0  0  0  0  0  0  0  0
   -8.4260    6.5500  -11.4390 H   0  0  0  0  0  0  0  0  0  0  0  0
   -6.5510    7.1110  -12.3230 C   0  0  0  0  0  3  0  0  0  0  0  0
   -5.3670    6.8340  -12.4820 O   0  0  0  0  0  0  0  0  0  0  0  0
   -6.9990    6.9690   -9.8590 C   0  0  0  0  0  0  0  0  0  0  0  0
   -5.9460    6.7590   -9.6690 H   0  0  0  0  0  0  0  0  0  0  0  0
   -7.1550    8.0480   -9.8840 H   0  0  0  0  0  0  0  0  0  0  0  0
   -7.8100    6.3970   -8.7320 C   0  0  0  0  0  0  0  0  0  0  0  0
   -9.1120    6.7880   -8.4820 N   0  0  0  0  0  0  0  0  0  0  0  0
   -7.5200    5.4300   -7.8250 C   0  0  0  0  0  0  0  0  0  0  0  0
   -6.5730    4.9000   -7.7210 H   0  0  0  0  0  0  0  0  0  0  0  0
   -9.5840    6.0790   -7.4730 C   0  0  0  0  0  0  0  0  0  0  0  0
  -10.5840    6.1660   -7.0470 H   0  0  0  0  0  0  0  0  0  0  0  0
   -8.6430    5.2470   -7.0660 N   0  0  0  0  0  0  0  0  0  0  0  0
   -4.3430    9.9870  -13.8600 N   0  0  0  0  0  2  0  0  0  0  0  0
   -3.9430    9.2670  -14.4950 H   0  0  0  0  0  0  0  0  0  0  0  0
   -3.4660   11.0950  -13.4060 C   0  0  2  0  0  0  0  0  0  0  0  0
   -3.9980   11.6020  -12.6010 H   0  0  0  0  0  0  0  0  0  0  0  0
   -3.1980   12.0700  -14.5610 C   0  0  0  0  0  3  0  0  0  0  0  0
   -2.6940   11.6660  -15.6100 O   0  0  0  0  0  0  0  0  0  0  0  0
   -2.1230   10.5980  -12.8370 C   0  0  0  0  0  0  0  0  0  0  0  0
   -1.6160   10.0380  -13.6230 H   0  0  0  0  0  0  0  0  0  0  0  0
   -1.2160   11.7770  -12.4230 C   0  0  0  0  0  0  0  0  0  0  0  0
   -1.0140   12.4010  -13.2930 H   0  0  0  0  0  0  0  0  0  0  0  0
   -1.7190   12.3690  -11.6580 H   0  0  0  0  0  0  0  0  0  0  0  0
   -0.2780   11.3900  -12.0260 H   0  0  0  0  0  0  0  0  0  0  0  0
   -2.3600    9.6900  -11.6480 C   0  0  0  0  0  0  0  0  0  0  0  0
   -2.8940   10.2400  -10.8730 H   0  0  0  0  0  0  0  0  0  0  0  0
   -2.9540    8.8310  -11.9610 H   0  0  0  0  0  0  0  0  0  0  0  0
   -1.4020    9.3470  -11.2570 H   0  0  0  0  0  0  0  0  0  0  0  0
   10.6540   11.3050   -5.5760 N   0  0  0  0  0  2  0  0  0  0  0  0
   10.3920   12.2850   -5.8030 H   0  0  0  0  0  0  0  0  0  0  0  0
   10.0940   10.6720   -4.3490 C   0  0  2  0  0  0  0  0  0  0  0  0
   10.8680    9.9920   -3.9930 H   0  0  0  0  0  0  0  0  0  0  0  0
    8.8430    9.8410   -4.6350 C   0  0  0  0  0  0  0  0  0  0  0  0
    8.3760    9.1070   -3.7350 O   0  0  0  0  0  0  0  0  0  0  0  0
    9.8210   11.6790   -3.2540 C   0  0  0  0  0  0  0  0  0  0  0  0
   10.7510   12.1790   -2.9810 H   0  0  0  0  0  0  0  0  0  0  0  0
    9.1020   12.4160   -3.6110 H   0  0  0  0  0  0  0  0  0  0  0  0
    9.4140   11.1650   -2.3830 H   0  0  0  0  0  0  0  0  0  0  0  0
    8.3280    9.9240   -5.8760 N   0  0  0  0  0  0  0  0  0  0  0  0
    8.8050   10.5390   -6.5650 H   0  0  0  0  0  0  0  0  0  0  0  0
    7.1420    9.2010   -6.3060 C   0  0  2  0  0  0  0  0  0  0  0  0
    6.4000    9.3360   -5.5190 H   0  0  0  0  0  0  0  0  0  0  0  0
    7.4250    7.7530   -6.4980 C   0  0  0  0  0  0  0  0  0  0  0  0
    8.5700    7.2700   -6.4620 O   0  0  0  0  0  0  0  0  0  0  0  0
    6.6180    9.7450   -7.6390 C   0  0  0  0  0  0  0  0  0  0  0  0
    5.6190    9.3460   -7.8150 H   0  0  0  0  0  0  0  0  0  0  0  0
    7.2840    9.4210   -8.4390 H   0  0  0  0  0  0  0  0  0  0  0  0
    6.5530   11.1910   -7.6390 O   0  0  0  0  0  0  0  0  0  0  0  0
    6.2110   11.5050   -8.5140 H   0  0  0  0  0  0  0  0  0  0  0  0
    6.3550    7.0580   -6.8100 N   0  0  0  0  0  0  0  0  0  0  0  0
    5.4610    7.5640   -6.9720 H   0  0  0  0  0  0  0  0  0  0  0  0
    6.3700    5.6400   -6.9350 C   0  0  2  0  0  0  0  0  0  0  0  0
    7.1620    5.1570   -6.3640 H   0  0  0  0  0  0  0  0  0  0  0  0
    6.5790    5.3360   -8.4090 C   0  0  0  0  0  3  0  0  0  0  0  0
    6.0940    6.0730   -9.2600 O   0  0  0  0  0  0  0  0  0  0  0  0
    5.0220    5.1190   -6.4090 C   0  0  0  0  0  0  0  0  0  0  0  0
    4.2350    5.7010   -6.8870 H   0  0  0  0  0  0  0  0  0  0  0  0
    4.9330    4.0750   -6.7090 H   0  0  0  0  0  0  0  0  0  0  0  0
    4.7900    5.1880   -4.8740 C   0  0  0  0  0  0  0  0  0  0  0  0
    5.0100    6.2120   -4.5710 H   0  0  0  0  0  0  0  0  0  0  0  0
    3.3110    4.7880   -4.5700 C   0  0  0  0  0  0  0  0  0  0  0  0
    2.6380    5.4790   -5.0770 H   0  0  0  0  0  0  0  0  0  0  0  0
    3.1300    3.7740   -4.9260 H   0  0  0  0  0  0  0  0  0  0  0  0
    3.1370    4.8330   -3.4950 H   0  0  0  0  0  0  0  0  0  0  0  0
    5.7270    4.2640   -4.0560 C   0  0  0  0  0  0  0  0  0  0  0  0
    5.5710    3.2290   -4.3610 H   0  0  0  0  0  0  0  0  0  0  0  0
    6.7640    4.5460   -4.2400 H   0  0  0  0  0  0  0  0  0  0  0  0
    5.5030    4.3690   -2.9940 H   0  0  0  0  0  0  0  0  0  0  0  0
    5.3050    3.2970  -10.3550 N   0  0  0  0  0  2  0  0  0  0  0  0
    5.3190    3.2100   -9.3190 H   0  0  0  0  0  0  0  0  0  0  0  0
    4.1120    2.9140  -11.0930 C   0  0  2  0  0  0  0  0  0  0  0  0
    4.3770    2.2010  -11.8730 H   0  0  0  0  0  0  0  0  0  0  0  0
    3.5250    4.1710  -11.7290 C   0  0  0  0  0  0  0  0  0  0  0  0
    2.8290    4.0740  -12.7370 O   0  0  0  0  0  0  0  0  0  0  0  0
    3.0890    2.1810  -10.2000 C   0  0  0  0  0  0  0  0  0  0  0  0
    2.2390    1.8870  -10.8160 H   0  0  0  0  0  0  0  0  0  0  0  0
    3.5630    1.2900   -9.7890 H   0  0  0  0  0  0  0  0  0  0  0  0
    2.5850    3.0260   -9.0590 C   0  0  0  0  0  0  0  0  0  0  0  0
    3.2850    2.9380   -8.2280 H   0  0  0  0  0  0  0  0  0  0  0  0
    2.5440    4.0640   -9.3890 H   0  0  0  0  0  0  0  0  0  0  0  0
    1.2080    2.6210   -8.5730 C   0  0  0  0  0  0  0  0  0  0  0  0
    0.7530    3.4710   -8.0650 H   0  0  0  0  0  0  0  0  0  0  0  0
    0.6000    2.3470   -9.4350 H   0  0  0  0  0  0  0  0  0  0  0  0
    1.2480    1.4500   -7.6160 C   0  0  0  0  0  0  0  0  0  0  0  0
    2.1300    1.5540   -6.9850 H   0  0  0  0  0  0  0  0  0  0  0  0
    1.3270    0.5330   -8.2000 H   0  0  0  0  0  0  0  0  0  0  0  0
    0.0220    1.3380   -6.7120 N   0  0  0  0  0  4  0  0  0  0  0  0
   -0.0630    2.2000   -6.1370 H   0  0  0  0  0  0  0  0  0  0  0  0
   -0.8300    1.2250   -7.2980 H   0  0  0  0  0  0  0  0  0  0  0  0
    0.1270    0.5130   -6.0880 H   0  0  0  0  0  0  0  0  0  0  0  0
    3.8150    5.3320  -11.1570 N   0  0  0  0  0  0  0  0  0  0  0  0
    4.3440    5.3460  -10.2620 H   0  0  0  0  0  0  0  0  0  0  0  0
    3.4060    6.5700  -11.7600 C   0  0  2  0  0  0  0  0  0  0  0  0
    2.6010    6.3500  -12.4610 H   0  0  0  0  0  0  0  0  0  0  0  0
    4.5830    7.2000  -12.5340 C   0  0  0  0  0  3  0  0  0  0  0  0
    4.3900    7.6850  -13.6440 O   0  0  0  0  0  0  0  0  0  0  0  0
    2.8330    7.5740  -10.6990 C   0  0  0  0  0  0  0  0  0  0  0  0
    1.7520    7.4410  -10.6510 H   0  0  0  0  0  0  0  0  0  0  0  0
    3.2710    7.3350   -9.7300 H   0  0  0  0  0  0  0  0  0  0  0  0
    3.1220    9.0400  -11.0060 C   0  0  0  0  0  0  0  0  0  0  0  0
    2.4190    9.6990  -11.9770 C   0  0  0  0  0  0  0  0  0  0  0  0
    1.6340    9.1740  -12.5200 H   0  0  0  0  0  0  0  0  0  0  0  0
    4.1580    9.7400  -10.3510 C   0  0  0  0  0  0  0  0  0  0  0  0
    4.7460    9.2230   -9.5930 H   0  0  0  0  0  0  0  0  0  0  0  0
    2.7000   11.0760  -12.2930 C   0  0  0  0  0  0  0  0  0  0  0  0
    2.1060   11.5870  -13.0510 H   0  0  0  0  0  0  0  0  0  0  0  0
    4.4620   11.1120  -10.6520 C   0  0  0  0  0  0  0  0  0  0  0  0
    5.2550   11.6380  -10.1200 H   0  0  0  0  0  0  0  0  0  0  0  0
    3.7150   11.7570  -11.6450 C   0  0  0  0  0  0  0  0  0  0  0  0
    3.9630   13.0750  -12.0290 O   0  0  0  0  0  0  0  0  0  0  0  0
    3.3260   13.3360  -12.7410 H   0  0  0  0  0  0  0  0  0  0  0  0
   10.9780    6.3050   -4.9480 N   0  0  0  0  0  2  0  0  0  0  0  0
   10.1880    5.9880   -5.5450 H   0  0  0  0  0  0  0  0  0  0  0  0
   10.7200    6.5580   -3.5270 C   0  0  2  0  0  0  0  0  0  0  0  0
   10.9690    7.6020   -3.3390 H   0  0  0  0  0  0  0  0  0  0  0  0
   11.6250    5.7190   -2.6400 C   0  0  0  0  0  3  0  0  0  0  0  0
   12.2670    6.2920   -1.7970 O   0  0  0  0  0  0  0  0  0  0  0  0
    9.2040    6.4100   -3.1540 C   0  0  0  0  0  0  0  0  0  0  0  0
    8.6640    7.2090   -3.6620 H   0  0  0  0  0  0  0  0  0  0  0  0
    8.8680    5.4460   -3.5360 H   0  0  0  0  0  0  0  0  0  0  0  0
    8.8060    6.4750   -1.6050 C   0  0  0  0  0  0  0  0  0  0  0  0
    9.0730    5.5270   -1.1380 H   0  0  0  0  0  0  0  0  0  0  0  0
    9.3690    7.2810   -1.1350 H   0  0  0  0  0  0  0  0  0  0  0  0
    7.2710    6.7340   -1.3710 C   0  0  0  0  0  0  0  0  0  0  0  0
    6.9860    6.4380   -0.3620 H   0  0  0  0  0  0  0  0  0  0  0  0
    6.6770    6.1740   -2.0940 H   0  0  0  0  0  0  0  0  0  0  0  0
    7.0740    8.1750   -1.5550 N   0  0  0  0  0  0  0  0  0  0  0  0
    7.9010    8.7810   -1.3810 H   0  0  0  0  0  0  0  0  0  0  0  0
    5.9530    8.7950   -1.9200 C   0  0  0  0  0  0  0  0  0  0  0  0
    4.8300    8.1290   -2.1550 N   0  0  0  0  0  4  0  0  0  0  0  0
    4.8090    7.0940   -2.0560 H   0  0  0  0  0  0  0  0  0  0  0  0
    3.9710    8.6420   -2.4390 H   0  0  0  0  0  0  0  0  0  0  0  0
    5.9750   10.1110   -2.0680 N   0  0  0  0  0  0  0  0  0  0  0  0
    6.8550   10.6390   -1.9000 H   0  0  0  0  0  0  0  0  0  0  0  0
    5.1120   10.6170   -2.3520 H   0  0  0  0  0  0  0  0  0  0  0  0
   11.6800   13.6970    2.1500 N   0  0  0  0  0  2  0  0  0  0  0  0
   11.0060   14.3750    1.7400 H   0  0  0  0  0  0  0  0  0  0  0  0
   12.3750   12.7460    1.2760 C   0  0  2  0  0  0  0  0  0  0  0  0
   12.5890   11.8420    1.8460 H   0  0  0  0  0  0  0  0  0  0  0  0
   13.6730   13.4000    0.7880 C   0  0  0  0  0  3  0  0  0  0  0  0
   13.6690   14.3550    0.0170 O   0  0  0  0  0  0  0  0  0  0  0  0
   11.5200   12.3200    0.0890 C   0  0  0  0  0  0  0  0  0  0  0  0
   11.3570   13.1990   -0.5350 H   0  0  0  0  0  0  0  0  0  0  0  0
   12.0810   11.5750   -0.4740 H   0  0  0  0  0  0  0  0  0  0  0  0
   10.1640   11.7270    0.4160 C   0  0  0  0  0  0  0  0  0  0  0  0
   10.0310   10.3500    0.7370 C   0  0  0  0  0  0  0  0  0  0  0  0
   10.9170    9.7150    0.7680 H   0  0  0  0  0  0  0  0  0  0  0  0
    9.0060   12.5450    0.3790 C   0  0  0  0  0  0  0  0  0  0  0  0
    9.1020   13.6000    0.1210 H   0  0  0  0  0  0  0  0  0  0  0  0
    8.7740    9.8000    1.0140 C   0  0  0  0  0  0  0  0  0  0  0  0
    8.6750    8.7420    1.2580 H   0  0  0  0  0  0  0  0  0  0  0  0
    7.7410   12.0170    0.6690 C   0  0  0  0  0  0  0  0  0  0  0  0
    6.8570   12.6550    0.6610 H   0  0  0  0  0  0  0  0  0  0  0  0
    7.6340   10.6360    0.9730 C   0  0  0  0  0  0  0  0  0  0  0  0
    6.3730   10.1120    1.2340 O   0  0  0  0  0  0  0  0  0  0  0  0
    6.4530    9.1450    1.4290 H   0  0  0  0  0  0  0  0  0  0  0  0
    6.8140   13.4770   -8.2220 H   0  0  0  0  0  0  0  0  0  0  0  0
   -8.7350    4.5970   -6.3320 H   0  0  0  0  0  0  0  0  0  0  0  0
  1  2  1  0
  1  3  1  0
  3  4  1  6
  3  5  1  0
  3  7  1  0
  5  6  2  0
  7  8  1  0
  7  9  1  0
  7 10  1  0
 10 11  2  0
 10 12  1  0
 12250  1  0
 13 14  1  0
 13 15  1  0
 15 16  1  6
 15 17  1  0
 15 19  1  0
 17 18  2  0
 17 24  1  0
 19 20  1  0
 19 21  1  0
 19 22  1  0
 22 23  1  0
 24 25  1  0
 24 26  1  0
 26 27  1  1
 26 28  1  0
 26 30  1  0
 28 29  2  0
 28 35  1  0
 30 31  1  0
 30 32  1  0
 30 33  1  0
 33 34  1  0
 35 36  1  0
 35 37  1  0
 37 38  1  6
 37 39  1  0
 37 41  1  0
 39 40  2  0
 41 42  1  0
 41 43  1  0
 41 44  1  0
 44 45  2  0
 44 47  1  0
 45 46  1  0
 45 49  1  0
 47 48  1  0
 47 51  2  0
 49 50  1  0
 49 53  2  0
 51 52  1  0
 51 53  1  0
 53 54  1  0
 55 56  1  0
 55 57  1  0
 57 58  1  6
 57 59  1  0
 57 61  1  0
 59 60  2  0
 61 62  1  0
 61 63  1  0
 61 67  1  0
 63 64  1  0
 63 65  1  0
 63 66  1  0
 67 68  1  0
 67 69  1  0
 67 70  1  0
 71 72  1  0
 71 73  1  0
 73 74  1  1
 73 75  1  0
 73 77  1  0
 75 76  2  0
 77 78  1  6
 77 79  1  0
 77 82  1  0
 79 80  1  0
 79 81  1  0
 79 86  1  0
 82 83  1  0
 82 84  1  0
 82 85  1  0
 86 87  1  0
 86 88  1  0
 86 89  1  0
 90 91  1  0
 90 92  1  0
 92 93  1  6
 92 94  1  0
 92 96  1  0
 94 95  2  0
 96 97  1  0
 96 98  1  0
 96 99  1  0
 99100  1  0
 99101  2  0
100103  2  0
101102  1  0
101105  1  0
103104  1  0
103105  1  0
105251  1  0
106107  1  0
106108  1  0
108109  1  1
108110  1  0
108112  1  0
110111  2  0
112113  1  0
112114  1  0
112118  1  0
114115  1  0
114116  1  0
114117  1  0
118119  1  0
118120  1  0
118121  1  0
122123  1  0
122124  1  0
124125  1  1
124126  1  0
124128  1  0
126127  2  0
126132  1  0
128129  1  0
128130  1  0
128131  1  0
132133  1  0
132134  1  0
134135  1  1
134136  1  0
134138  1  0
136137  2  0
136143  1  0
138139  1  0
138140  1  0
138141  1  0
141142  1  0
143144  1  0
143145  1  0
145146  1  1
145147  1  0
145149  1  0
147148  2  0
149150  1  0
149151  1  0
149152  1  0
152153  1  0
152154  1  0
152158  1  0
154155  1  0
154156  1  0
154157  1  0
158159  1  0
158160  1  0
158161  1  0
162163  1  0
162164  1  0
164165  1  6
164166  1  0
164168  1  0
166167  2  0
166184  1  0
168169  1  0
168170  1  0
168171  1  0
171172  1  0
171173  1  0
171174  1  0
174175  1  0
174176  1  0
174177  1  0
177178  1  0
177179  1  0
177180  1  0
180181  1  0
180182  1  0
180183  1  0
184185  1  0
184186  1  0
186187  1  6
186188  1  0
186190  1  0
188189  2  0
190191  1  0
190192  1  0
190193  1  0
193194  2  0
193196  1  0
194195  1  0
194198  1  0
196197  1  0
196200  2  0
198199  1  0
198202  2  0
200201  1  0
200202  1  0
202203  1  0
203204  1  0
205206  1  0
205207  1  0
207208  1  6
207209  1  0
207211  1  0
209210  2  0
211212  1  0
211213  1  0
211214  1  0
214215  1  0
214216  1  0
214217  1  0
217218  1  0
217219  1  0
217220  1  0
220221  1  0
220222  1  0
222223  2  0
222226  1  0
223224  1  0
223225  1  0
226227  1  0
226228  1  0
229230  1  0
229231  1  0
231232  1  1
231233  1  0
231235  1  0
233234  2  0
235236  1  0
235237  1  0
235238  1  0
238239  2  0
238241  1  0
239240  1  0
239243  1  0
241242  1  0
241245  2  0
243244  1  0
243247  2  0
245246  1  0
245247  1  0
247248  1  0
248249  1  0
M  RAD  8   1   2   5   2  13   2  39   2  55   2  59   2  71   2  75   2
M  RAD  8  90   2  94   2 106   2 110   2 122   2 147   2 162   2 188   2
M  CHG  2 180   1 223   1
M  RAD  4 205   2 209   2 229   2 233   2
M  END
$$$$

     RDKit          3D

251245  0  0  0  0  0  0  0  0999 V2000
    8.2390   15.7430  -10.2460 N   0  0  0  0  0  2  0  0  0  0  0  0
    8.4060   14.8450   -9.7480 H   0  0  0  0  0  0  0  0  0  0  0  0
    7.1270   16.5820   -9.8330 C   0  0  2  0  0  0  0  0  0  0  0  0
    6.5240   16.7530  -10.7240 H   0  0  0  0  0  0  0  0  0  0  0  0
    7.5010   17.9630   -9.3590 C   0  0  0  0  0  3  0  0  0  0  0  0
    8.3130   18.1090   -8.4540 O   0  0  0  0  0  0  0  0  0  0  0  0
    6.3630   15.8620   -8.7680 C   0  0  0  0  0  0  0  0  0  0  0  0
    7.0440   15.5910   -7.9610 H   0  0  0  0  0  0  0  0  0  0  0  0
    5.5850   16.5200   -8.3800 H   0  0  0  0  0  0  0  0  0  0  0  0
    5.7360   14.6350   -9.3040 C   0  0  0  0  0  0  0  0  0  0  0  0
    4.8520   14.7920  -10.1880 O   0  0  0  0  0  0  0  0  0  0  0  0
    6.1520   13.5130   -8.8840 O   0  0  0  0  0  0  0  0  0  0  0  0
    1.6580   16.8130  -11.9920 N   0  0  0  0  0  2  0  0  0  0  0  0
    2.3630   16.6600  -11.2430 H   0  0  0  0  0  0  0  0  0  0  0  0
    0.5750   15.8710  -12.1280 C   0  0  2  0  0  0  0  0  0  0  0  0
    0.1290   15.9910  -13.1150 H   0  0  0  0  0  0  0  0  0  0  0  0
   -0.5220   16.1130  -11.1130 C   0  0  0  0  0  0  0  0  0  0  0  0
   -0.2990   16.7340  -10.0760 O   0  0  0  0  0  0  0  0  0  0  0  0
    1.1300   14.4960  -11.9520 C   0  0  0  0  0  0  0  0  0  0  0  0
    0.3140   13.7740  -11.9180 H   0  0  0  0  0  0  0  0  0  0  0  0
    1.6970   14.4460  -11.0220 H   0  0  0  0  0  0  0  0  0  0  0  0
    1.9940   14.1960  -13.0610 O   0  0  0  0  0  0  0  0  0  0  0  0
    2.3660   13.2850  -12.9510 H   0  0  0  0  0  0  0  0  0  0  0  0
   -1.7070   15.5990  -11.3820 N   0  0  0  0  0  0  0  0  0  0  0  0
   -1.8300   15.0390  -12.2500 H   0  0  0  0  0  0  0  0  0  0  0  0
   -2.8500   15.7940  -10.4960 C   0  0  2  0  0  0  0  0  0  0  0  0
   -2.4940   15.6940   -9.4710 H   0  0  0  0  0  0  0  0  0  0  0  0
   -3.9360   14.7420  -10.7100 C   0  0  0  0  0  0  0  0  0  0  0  0
   -4.1170   14.2150  -11.8220 O   0  0  0  0  0  0  0  0  0  0  0  0
   -3.4310   17.1680  -10.7260 C   0  0  0  0  0  0  0  0  0  0  0  0
   -3.6970   17.2780  -11.7770 H   0  0  0  0  0  0  0  0  0  0  0  0
   -2.6920   17.9230  -10.4590 H   0  0  0  0  0  0  0  0  0  0  0  0
   -4.5930   17.3400   -9.9250 O   0  0  0  0  0  0  0  0  0  0  0  0
   -4.9690   18.2430  -10.0800 H   0  0  0  0  0  0  0  0  0  0  0  0
   -4.6520   14.4140   -9.6350 N   0  0  0  0  0  0  0  0  0  0  0  0
   -4.3590   14.7920   -8.7110 H   0  0  0  0  0  0  0  0  0  0  0  0
   -5.8320   13.5460   -9.6910 C   0  0  2  0  0  0  0  0  0  0  0  0
   -5.6450   12.7780  -10.4420 H   0  0  0  0  0  0  0  0  0  0  0  0
   -7.0770   14.3290  -10.1220 C   0  0  0  0  0  3  0  0  0  0  0  0
   -8.0250   13.7390  -10.5890 O   0  0  0  0  0  0  0  0  0  0  0  0
   -6.0610   12.8570   -8.3570 C   0  0  0  0  0  0  0  0  0  0  0  0
   -5.9730   13.6020   -7.5670 H   0  0  0  0  0  0  0  0  0  0  0  0
   -7.0700   12.4440   -8.3540 H   0  0  0  0  0  0  0  0  0  0  0  0
   -5.0730   11.7210   -8.0610 C   0  0  0  0  0  0  0  0  0  0  0  0
   -4.0720   11.8810   -7.1020 C   0  0  0  0  0  0  0  0  0  0  0  0
   -3.9860   12.8270   -6.5670 H   0  0  0  0  0  0  0  0  0  0  0  0
   -5.1740   10.4980   -8.7080 C   0  0  0  0  0  0  0  0  0  0  0  0
   -5.9560   10.3530   -9.4530 H   0  0  0  0  0  0  0  0  0  0  0  0
   -3.1820   10.8480   -6.8190 C   0  0  0  0  0  0  0  0  0  0  0  0
   -2.4060   10.9870   -6.0660 H   0  0  0  0  0  0  0  0  0  0  0  0
   -4.2920    9.4420   -8.4250 C   0  0  0  0  0  0  0  0  0  0  0  0
   -4.4060    8.4830   -8.9310 H   0  0  0  0  0  0  0  0  0  0  0  0
   -3.2860    9.6220   -7.5080 C   0  0  0  0  0  0  0  0  0  0  0  0
   -2.5720    8.8220   -7.3140 H   0  0  0  0  0  0  0  0  0  0  0  0
   -3.3140    5.0230  -13.0570 N   0  0  0  0  0  2  0  0  0  0  0  0
   -4.1400    5.6150  -12.8370 H   0  0  0  0  0  0  0  0  0  0  0  0
   -2.5170    4.4610  -11.9940 C   0  0  2  0  0  0  0  0  0  0  0  0
   -1.7250    3.8470  -12.4230 H   0  0  0  0  0  0  0  0  0  0  0  0
   -3.4380    3.6400  -11.1070 C   0  0  0  0  0  3  0  0  0  0  0  0
   -4.4710    4.1900  -10.6370 O   0  0  0  0  0  0  0  0  0  0  0  0
   -1.8540    5.5840  -11.1350 C   0  0  0  0  0  0  0  0  0  0  0  0
   -2.6490    6.2450  -10.7900 H   0  0  0  0  0  0  0  0  0  0  0  0
   -1.1450    4.9970   -9.9330 C   0  0  0  0  0  0  0  0  0  0  0  0
   -1.8650    4.4610   -9.3150 H   0  0  0  0  0  0  0  0  0  0  0  0
   -0.3700    4.3090  -10.2700 H   0  0  0  0  0  0  0  0  0  0  0  0
   -0.6920    5.8000   -9.3520 H   0  0  0  0  0  0  0  0  0  0  0  0
   -0.8790    6.3820  -11.9530 C   0  0  0  0  0  0  0  0  0  0  0  0
   -0.0980    5.7220  -12.3300 H   0  0  0  0  0  0  0  0  0  0  0  0
   -1.4020    6.8440  -12.7900 H   0  0  0  0  0  0  0  0  0  0  0  0
   -0.4320    7.1570  -11.3300 H   0  0  0  0  0  0  0  0  0  0  0  0
   -4.5210    2.0210   -7.7850 N   0  0  0  0  0  2  0  0  0  0  0  0
   -5.4600    2.1270   -8.2190 H   0  0  0  0  0  0  0  0  0  0  0  0
   -4.3760    2.2860   -6.3400 C   0  0  2  0  0  0  0  0  0  0  0  0
   -3.3700    1.9630   -6.0710 H   0  0  0  0  0  0  0  0  0  0  0  0
   -5.3740    1.4700   -5.5200 C   0  0  0  0  0  3  0  0  0  0  0  0
   -6.6090    1.7400   -5.5300 O   0  0  0  0  0  0  0  0  0  0  0  0
   -4.4620    3.8040   -5.9870 C   0  0  2  0  0  0  0  0  0  0  0  0
   -5.4400    4.1780   -6.2900 H   0  0  0  0  0  0  0  0  0  0  0  0
   -3.3750    4.5860   -6.7450 C   0  0  0  0  0  0  0  0  0  0  0  0
   -2.4260    4.4330   -6.2310 H   0  0  0  0  0  0  0  0  0  0  0  0
   -3.3090    4.1820   -7.7550 H   0  0  0  0  0  0  0  0  0  0  0  0
   -4.3050    4.0130   -4.4580 C   0  0  0  0  0  0  0  0  0  0  0  0
   -5.1000    3.4810   -3.9360 H   0  0  0  0  0  0  0  0  0  0  0  0
   -3.3370    3.6280   -4.1370 H   0  0  0  0  0  0  0  0  0  0  0  0
   -4.3670    5.0770   -4.2300 H   0  0  0  0  0  0  0  0  0  0  0  0
   -3.6210    6.0930   -6.8510 C   0  0  0  0  0  0  0  0  0  0  0  0
   -4.5590    6.2710   -7.3760 H   0  0  0  0  0  0  0  0  0  0  0  0
   -3.6760    6.5220   -5.8510 H   0  0  0  0  0  0  0  0  0  0  0  0
   -2.8020    6.5560   -7.4010 H   0  0  0  0  0  0  0  0  0  0  0  0
   -7.1030    4.9550  -11.2140 N   0  0  0  0  0  2  0  0  0  0  0  0
   -6.1220    4.6450  -11.0650 H   0  0  0  0  0  0  0  0  0  0  0  0
   -7.3690    6.3930  -11.2260 C   0  0  2  0  0  0  0  0  0  0  0  0
   -8.4260    6.5500  -11.4390 H   0  0  0  0  0  0  0  0  0  0  0  0
   -6.5510    7.1110  -12.3230 C   0  0  0  0  0  3  0  0  0  0  0  0
   -5.3670    6.8340  -12.4820 O   0  0  0  0  0  0  0  0  0  0  0  0
   -6.9990    6.9690   -9.8590 C   0  0  0  0  0  0  0  0  0  0  0  0
   -5.9460    6.7590   -9.6690 H   0  0  0  0  0  0  0  0  0  0  0  0
   -7.1550    8.0480   -9.8840 H   0  0  0  0  0  0  0  0  0  0  0  0
   -7.8100    6.3970   -8.7320 C   0  0  0  0  0  0  0  0  0  0  0  0
   -9.1120    6.7880   -8.4820 N   0  0  0  0  0  0  0  0  0  0  0  0
   -7.5200    5.4300   -7.8250 C   0  0  0  0  0  0  0  0  0  0  0  0
   -6.5730    4.9000   -7.7210 H   0  0  0  0  0  0  0  0  0  0  0  0
   -9.5840    6.0790   -7.4730 C   0  0  0  0  0  0  0  0  0  0  0  0
  -10.5840    6.1660   -7.0470 H   0  0  0  0  0  0  0  0  0  0  0  0
   -8.6430    5.2470   -7.0660 N   0  0  0  0  0  0  0  0  0  0  0  0
   -4.3430    9.9870  -13.8600 N   0  0  0  0  0  2  0  0  0  0  0  0
   -3.9430    9.2670  -14.4950 H   0  0  0  0  0  0  0  0  0  0  0  0
   -3.4660   11.0950  -13.4060 C   0  0  2  0  0  0  0  0  0  0  0  0
   -3.9980   11.6020  -12.6010 H   0  0  0  0  0  0  0  0  0  0  0  0
   -3.1980   12.0700  -14.5610 C   0  0  0  0  0  3  0  0  0  0  0  0
   -2.6940   11.6660  -15.6100 O   0  0  0  0  0  0  0  0  0  0  0  0
   -2.1230   10.5980  -12.8370 C   0  0  0  0  0  0  0  0  0  0  0  0
   -1.6160   10.0380  -13.6230 H   0  0  0  0  0  0  0  0  0  0  0  0
   -1.2160   11.7770  -12.4230 C   0  0  0  0  0  0  0  0  0  0  0  0
   -1.0140   12.4010  -13.2930 H   0  0  0  0  0  0  0  0  0  0  0  0
   -1.7190   12.3690  -11.6580 H   0  0  0  0  0  0  0  0  0  0  0  0
   -0.2780   11.3900  -12.0260 H   0  0  0  0  0  0  0  0  0  0  0  0
   -2.3600    9.6900  -11.6480 C   0  0  0  0  0  0  0  0  0  0  0  0
   -2.8940   10.2400  -10.8730 H   0  0  0  0  0  0  0  0  0  0  0  0
   -2.9540    8.8310  -11.9610 H   0  0  0  0  0  0  0  0  0  0  0  0
   -1.4020    9.3470  -11.2570 H   0  0  0  0  0  0  0  0  0  0  0  0
   10.6540   11.3050   -5.5760 N   0  0  0  0  0  2  0  0  0  0  0  0
   10.3920   12.2850   -5.8030 H   0  0  0  0  0  0  0  0  0  0  0  0
   10.0940   10.6720   -4.3490 C   0  0  2  0  0  0  0  0  0  0  0  0
   10.8680    9.9920   -3.9930 H   0  0  0  0  0  0  0  0  0  0  0  0
    8.8430    9.8410   -4.6350 C   0  0  0  0  0  0  0  0  0  0  0  0
    8.3760    9.1070   -3.7350 O   0  0  0  0  0  0  0  0  0  0  0  0
    9.8210   11.6790   -3.2540 C   0  0  0  0  0  0  0  0  0  0  0  0
   10.7510   12.1790   -2.9810 H   0  0  0  0  0  0  0  0  0  0  0  0
    9.1020   12.4160   -3.6110 H   0  0  0  0  0  0  0  0  0  0  0  0
    9.4140   11.1650   -2.3830 H   0  0  0  0  0  0  0  0  0  0  0  0
    8.3280    9.9240   -5.8760 N   0  0  0  0  0  0  0  0  0  0  0  0
    8.8050   10.5390   -6.5650 H   0  0  0  0  0  0  0  0  0  0  0  0
    7.1420    9.2010   -6.3060 C   0  0  2  0  0  0  0  0  0  0  0  0
    6.4000    9.3360   -5.5190 H   0  0  0  0  0  0  0  0  0  0  0  0
    7.4250    7.7530   -6.4980 C   0  0  0  0  0  0  0  0  0  0  0  0
    8.5700    7.2700   -6.4620 O   0  0  0  0  0  0  0  0  0  0  0  0
    6.6180    9.7450   -7.6390 C   0  0  0  0  0  0  0  0  0  0  0  0
    5.6190    9.3460   -7.8150 H   0  0  0  0  0  0  0  0  0  0  0  0
    7.2840    9.4210   -8.4390 H   0  0  0  0  0  0  0  0  0  0  0  0
    6.5530   11.1910   -7.6390 O   0  0  0  0  0  0  0  0  0  0  0  0
    6.2110   11.5050   -8.5140 H   0  0  0  0  0  0  0  0  0  0  0  0
    6.3550    7.0580   -6.8100 N   0  0  0  0  0  0  0  0  0  0  0  0
    5.4610    7.5640   -6.9720 H   0  0  0  0  0  0  0  0  0  0  0  0
    6.3700    5.6400   -6.9350 C   0  0  2  0  0  0  0  0  0  0  0  0
    7.1620    5.1570   -6.3640 H   0  0  0  0  0  0  0  0  0  0  0  0
    6.5790    5.3360   -8.4090 C   0  0  0  0  0  3  0  0  0  0  0  0
    6.0940    6.0730   -9.2600 O   0  0  0  0  0  0  0  0  0  0  0  0
    5.0220    5.1190   -6.4090 C   0  0  0  0  0  0  0  0  0  0  0  0
    4.2350    5.7010   -6.8870 H   0  0  0  0  0  0  0  0  0  0  0  0
    4.9330    4.0750   -6.7090 H   0  0  0  0  0  0  0  0  0  0  0  0
    4.7900    5.1880   -4.8740 C   0  0  0  0  0  0  0  0  0  0  0  0
    5.0100    6.2120   -4.5710 H   0  0  0  0  0  0  0  0  0  0  0  0
    3.3110    4.7880   -4.5700 C   0  0  0  0  0  0  0  0  0  0  0  0
    2.6380    5.4790   -5.0770 H   0  0  0  0  0  0  0  0  0  0  0  0
    3.1300    3.7740   -4.9260 H   0  0  0  0  0  0  0  0  0  0  0  0
    3.1370    4.8330   -3.4950 H   0  0  0  0  0  0  0  0  0  0  0  0
    5.7270    4.2640   -4.0560 C   0  0  0  0  0  0  0  0  0  0  0  0
    5.5710    3.2290   -4.3610 H   0  0  0  0  0  0  0  0  0  0  0  0
    6.7640    4.5460   -4.2400 H   0  0  0  0  0  0  0  0  0  0  0  0
    5.5030    4.3690   -2.9940 H   0  0  0  0  0  0  0  0  0  0  0  0
    5.3050    3.2970  -10.3550 N   0  0  0  0  0  2  0  0  0  0  0  0
    5.3190    3.2100   -9.3190 H   0  0  0  0  0  0  0  0  0  0  0  0
    4.1120    2.9140  -11.0930 C   0  0  2  0  0  0  0  0  0  0  0  0
    4.3770    2.2010  -11.8730 H   0  0  0  0  0  0  0  0  0  0  0  0
    3.5250    4.1710  -11.7290 C   0  0  0  0  0  0  0  0  0  0  0  0
    2.8290    4.0740  -12.7370 O   0  0  0  0  0  0  0  0  0  0  0  0
    3.0890    2.1810  -10.2000 C   0  0  0  0  0  0  0  0  0  0  0  0
    2.2390    1.8870  -10.8160 H   0  0  0  0  0  0  0  0  0  0  0  0
    3.5630    1.2900   -9.7890 H   0  0  0  0  0  0  0  0  0  0  0  0
    2.5850    3.0260   -9.0590 C   0  0  0  0  0  0  0  0  0  0  0  0
    3.2850    2.9380   -8.2280 H   0  0  0  0  0  0  0  0  0  0  0  0
    2.5440    4.0640   -9.3890 H   0  0  0  0  0  0  0  0  0  0  0  0
    1.2080    2.6210   -8.5730 C   0  0  0  0  0  0  0  0  0  0  0  0
    0.7530    3.4710   -8.0650 H   0  0  0  0  0  0  0  0  0  0  0  0
    0.6000    2.3470   -9.4350 H   0  0  0  0  0  0  0  0  0  0  0  0
    1.2480    1.4500   -7.6160 C   0  0  0  0  0  0  0  0  0  0  0  0
    2.1300    1.5540   -6.9850 H   0  0  0  0  0  0  0  0  0  0  0  0
    1.3270    0.5330   -8.2000 H   0  0  0  0  0  0  0  0  0  0  0  0
    0.0220    1.3380   -6.7120 N   0  0  0  0  0  4  0  0  0  0  0  0
   -0.0630    2.2000   -6.1370 H   0  0  0  0  0  0  0  0  0  0  0  0
   -0.8300    1.2250   -7.2980 H   0  0  0  0  0  0  0  0  0  0  0  0
    0.1270    0.5130   -6.0880 H   0  0  0  0  0  0  0  0  0  0  0  0
    3.8150    5.3320  -11.1570 N   0  0  0  0  0  0  0  0  0  0  0  0
    4.3440    5.3460  -10.2620 H   0  0  0  0  0  0  0  0  0  0  0  0
    3.4060    6.5700  -11.7600 C   0  0  2  0  0  0  0  0  0  0  0  0
    2.6010    6.3500  -12.4610 H   0  0  0  0  0  0  0  0  0  0  0  0
    4.5830    7.2000  -12.5340 C   0  0  0  0  0  3  0  0  0  0  0  0
    4.3900    7.6850  -13.6440 O   0  0  0  0  0  0  0  0  0  0  0  0
    2.8330    7.5740  -10.6990 C   0  0  0  0  0  0  0  0  0  0  0  0
    1.7520    7.4410  -10.6510 H   0  0  0  0  0  0  0  0  0  0  0  0
    3.2710    7.3350   -9.7300 H   0  0  0  0  0  0  0  0  0  0  0  0
    3.1220    9.0400  -11.0060 C   0  0  0  0  0  0  0  0  0  0  0  0
    2.4190    9.6990  -11.9770 C   0  0  0  0  0  0  0  0  0  0  0  0
    1.6340    9.1740  -12.5200 H   0  0  0  0  0  0  0  0  0  0  0  0
    4.1580    9.7400  -10.3510 C   0  0  0  0  0  0  0  0  0  0  0  0
    4.7460    9.2230   -9.5930 H   0  0  0  0  0  0  0  0  0  0  0  0
    2.7000   11.0760  -12.2930 C   0  0  0  0  0  0  0  0  0  0  0  0
    2.1060   11.5870  -13.0510 H   0  0  0  0  0  0  0  0  0  0  0  0
    4.4620   11.1120  -10.6520 C   0  0  0  0  0  0  0  0  0  0  0  0
    5.2550   11.6380  -10.1200 H   0  0  0  0  0  0  0  0  0  0  0  0
    3.7150   11.7570  -11.6450 C   0  0  0  0  0  0  0  0  0  0  0  0
    3.9630   13.0750  -12.0290 O   0  0  0  0  0  0  0  0  0  0  0  0
    3.3260   13.3360  -12.7410 H   0  0  0  0  0  0  0  0  0  0  0  0
   10.9780    6.3050   -4.9480 N   0  0  0  0  0  2  0  0  0  0  0  0
   10.1880    5.9880   -5.5450 H   0  0  0  0  0  0  0  0  0  0  0  0
   10.7200    6.5580   -3.5270 C   0  0  2  0  0  0  0  0  0  0  0  0
   10.9690    7.6020   -3.3390 H   0  0  0  0  0  0  0  0  0  0  0  0
   11.6250    5.7190   -2.6400 C   0  0  0  0  0  3  0  0  0  0  0  0
   12.2670    6.2920   -1.7970 O   0  0  0  0  0  0  0  0  0  0  0  0
    9.2040    6.4100   -3.1540 C   0  0  0  0  0  0  0  0  0  0  0  0
    8.6640    7.2090   -3.6620 H   0  0  0  0  0  0  0  0  0  0  0  0
    8.8680    5.4460   -3.5360 H   0  0  0  0  0  0  0  0  0  0  0  0
    8.8060    6.4750   -1.6050 C   0  0  0  0  0  0  0  0  0  0  0  0
    9.0730    5.5270   -1.1380 H   0  0  0  0  0  0  0  0  0  0  0  0
    9.3690    7.2810   -1.1350 H   0  0  0  0  0  0  0  0  0  0  0  0
    7.2710    6.7340   -1.3710 C   0  0  0  0  0  0  0  0  0  0  0  0
    6.9860    6.4380   -0.3620 H   0  0  0  0  0  0  0  0  0  0  0  0
    6.6770    6.1740   -2.0940 H   0  0  0  0  0  0  0  0  0  0  0  0
    7.0740    8.1750   -1.5550 N   0  0  0  0  0  0  0  0  0  0  0  0
    7.9010    8.7810   -1.3810 H   0  0  0  0  0  0  0  0  0  0  0  0
    5.9530    8.7950   -1.9200 C   0  0  0  0  0  0  0  0  0  0  0  0
    4.8300    8.1290   -2.1550 N   0  0  0  0  0  4  0  0  0  0  0  0
    4.8090    7.0940   -2.0560 H   0  0  0  0  0  0  0  0  0  0  0  0
    3.9710    8.6420   -2.4390 H   0  0  0  0  0  0  0  0  0  0  0  0
    5.9750   10.1110   -2.0680 N   0  0  0  0  0  0  0  0  0  0  0  0
    6.8550   10.6390   -1.9000 H   0  0  0  0  0  0  0  0  0  0  0  0
    5.1120   10.6170   -2.3520 H   0  0  0  0  0  0  0  0  0  0  0  0
   11.6800   13.6970    2.1500 N   0  0  0  0  0  2  0  0  0  0  0  0
   11.0060   14.3750    1.7400 H   0  0  0  0  0  0  0  0  0  0  0  0
   12.3750   12.7460    1.2760 C   0  0  2  0  0  0  0  0  0  0  0  0
   12.5890   11.8420    1.8460 H   0  0  0  0  0  0  0  0  0  0  0  0
   13.6730   13.4000    0.7880 C   0  0  0  0  0  3  0  0  0  0  0  0
   13.6690   14.3550    0.0170 O   0  0  0  0  0  0  0  0  0  0  0  0
   11.5200   12.3200    0.0890 C   0  0  0  0  0  0  0  0  0  0  0  0
   11.3570   13.1990   -0.5350 H   0  0  0  0  0  0  0  0  0  0  0  0
   12.0810   11.5750   -0.4740 H   0  0  0  0  0  0  0  0  0  0  0  0
   10.1640   11.7270    0.4160 C   0  0  0  0  0  0  0  0  0  0  0  0
   10.0310   10.3500    0.7370 C   0  0  0  0  0  0  0  0  0  0  0  0
   10.9170    9.7150    0.7680 H   0  0  0  0  0  0  0  0  0  0  0  0
    9.0060   12.5450    0.3790 C   0  0  0  0  0  0  0  0  0  0  0  0
    9.1020   13.6000    0.1210 H   0  0  0  0  0  0  0  0  0  0  0  0
    8.7740    9.8000    1.0140 C   0  0  0  0  0  0  0  0  0  0  0  0
    8.6750    8.7420    1.2580 H   0  0  0  0  0  0  0  0  0  0  0  0
    7.7410   12.0170    0.6690 C   0  0  0  0  0  0  0  0  0  0  0  0
    6.8570   12.6550    0.6610 H   0  0  0  0  0  0  0  0  0  0  0  0
    7.6340   10.6360    0.9730 C   0  0  0  0  0  0  0  0  0  0  0  0
    6.3730   10.1120    1.2340 O   0  0  0  0  0  0  0  0  0  0  0  0
    6.4530    9.1450    1.4290 H   0  0  0  0  0  0  0  0  0  0  0  0
    6.8140   13.4770   -8.2220 H   0  0  0  0  0  0  0  0  0  0  0  0
   -8.7350    4.5970   -6.3320 H   0  0  0  0  0  0  0  0  0  0  0  0
  1  2  1  0
  1  3  1  0
  3  4  1  6
  3  5  1  0
  3  7  1  0
  5  6  2  0
  7  8  1  0
  7  9  1  0
  7 10  1  0
 10 11  2  0
 10 12  1  0
 12250  1  0
 13 14  1  0
 13 15  1  0
 15 16  1  6
 15 17  1  0
 15 19  1  0
 17 18  2  0
 17 24  1  0
 19 20  1  0
 19 21  1  0
 19 22  1  0
 22 23  1  0
 24 25  1  0
 24 26  1  0
 26 27  1  1
 26 28  1  0
 26 30  1  0
 28 29  2  0
 28 35  1  0
 30 31  1  0
 30 32  1  0
 30 33  1  0
 33 34  1  0
 35 36  1  0
 35 37  1  0
 37 38  1  6
 37 39  1  0
 37 41  1  0
 39 40  2  0
 41 42  1  0
 41 43  1  0
 41 44  1  0
 44 45  2  0
 44 47  1  0
 45 46  1  0
 45 49  1  0
 47 48  1  0
 47 51  2  0
 49 50  1  0
 49 53  2  0
 51 52  1  0
 51 53  1  0
 53 54  1  0
 55 56  1  0
 55 57  1  0
 57 58  1  6
 57 59  1  0
 57 61  1  0
 59 60  2  0
 61 62  1  0
 61 63  1  0
 61 67  1  0
 63 64  1  0
 63 65  1  0
 63 66  1  0
 67 68  1  0
 67 69  1  0
 67 70  1  0
 71 72  1  0
 71 73  1  0
 73 74  1  1
 73 75  1  0
 73 77  1  0
 75 76  2  0
 77 78  1  6
 77 79  1  0
 77 82  1  0
 79 80  1  0
 79 81  1  0
 79 86  1  0
 82 83  1  0
 82 84  1  0
 82 85  1  0
 86 87  1  0
 86 88  1  0
 86 89  1  0
 90 91  1  0
 90 92  1  0
 92 93  1  6
 92 94  1  0
 92 96  1  0
 94 95  2  0
 96 97  1  0
 96 98  1  0
 96 99  1  0
 99100  1  0
 99101  2  0
100103  2  0
101102  1  0
101105  1  0
103104  1  0
103105  1  0
105251  1  0
106107  1  0
106108  1  0
108109  1  1
108110  1  0
108112  1  0
110111  2  0
112113  1  0
112114  1  0
112118  1  0
114115  1  0
114116  1  0
114117  1  0
118119  1  0
118120  1  0
118121  1  0
122123  1  0
122124  1  0
124125  1  1
124126  1  0
124128  1  0
126127  2  0
126132  1  0
128129  1  0
128130  1  0
128131  1  0
132133  1  0
132134  1  0
134135  1  1
134136  1  0
134138  1  0
136137  2  0
136143  1  0
138139  1  0
138140  1  0
138141  1  0
141142  1  0
143144  1  0
143145  1  0
145146  1  1
145147  1  0
145149  1  0
147148  2  0
149150  1  0
149151  1  0
149152  1  0
152153  1  0
152154  1  0
152158  1  0
154155  1  0
154156  1  0
154157  1  0
158159  1  0
158160  1  0
158161  1  0
162163  1  0
162164  1  0
164165  1  6
164166  1  0
164168  1  0
166167  2  0
166184  1  0
168169  1  0
168170  1  0
168171  1  0
171172  1  0
171173  1  0
171174  1  0
174175  1  0
174176  1  0
174177  1  0
177178  1  0
177179  1  0
177180  1  0
180181  1  0
180182  1  0
180183  1  0
184185  1  0
184186  1  0
186187  1  6
186188  1  0
186190  1  0
188189  2  0
190191  1  0
190192  1  0
190193  1  0
193194  2  0
193196  1  0
194195  1  0
194198  1  0
196197  1  0
196200  2  0
198199  1  0
198202  2  0
200201  1  0
200202  1  0
202203  1  0
203204  1  0
205206  1  0
205207  1  0
207208  1  6
207209  1  0
207211  1  0
209210  2  0
211212  1  0
211213  1  0
211214  1  0
214215  1  0
214216  1  0
214217  1  0
217218  1  0
217219  1  0
217220  1  0
220221  1  0
220222  1  0
222223  2  0
222226  1  0
223224  1  0
223225  1  0
226227  1  0
226228  1  0
229230  1  0
229231  1  0
231232  1  1
231233  1  0
231235  1  0
233234  2  0
235236  1  0
235237  1  0
235238  1  0
238239  2  0
238241  1  0
239240  1  0
239243  1  0
241242  1  0
241245  2  0
243244  1  0
243247  2  0
245246  1  0
245247  1  0
247248  1  0
248249  1  0
M  RAD  8   1   2   5   2  13   2  39   2  55   2  59   2  71   2  75   2
M  RAD  8  90   2  94   2 106   2 110   2 122   2 147   2 162   2 188   2
M  CHG  2 180   1 223   1
M  RAD  4 205   2 209   2 229   2 233   2
M  END
$$$$

     RDKit          3D

251245  0  0  0  0  0  0  0  0999 V2000
    8.2390   15.7430  -10.2460 N   0  0  0  0  0  2  0  0  0  0  0  0
    8.4060   14.8450   -9.7480 H   0  0  0  0  0  0  0  0  0  0  0  0
    7.1270   16.5820   -9.8330 C   0  0  2  0  0  0  0  0  0  0  0  0
    6.5240   16.7530  -10.7240 H   0  0  0  0  0  0  0  0  0  0  0  0
    7.5010   17.9630   -9.3590 C   0  0  0  0  0  3  0  0  0  0  0  0
    8.3130   18.1090   -8.4540 O   0  0  0  0  0  0  0  0  0  0  0  0
    6.3630   15.8620   -8.7680 C   0  0  0  0  0  0  0  0  0  0  0  0
    7.0440   15.5910   -7.9610 H   0  0  0  0  0  0  0  0  0  0  0  0
    5.5850   16.5200   -8.3800 H   0  0  0  0  0  0  0  0  0  0  0  0
    5.7360   14.6350   -9.3040 C   0  0  0  0  0  0  0  0  0  0  0  0
    4.8520   14.7920  -10.1880 O   0  0  0  0  0  0  0  0  0  0  0  0
    6.1520   13.5130   -8.8840 O   0  0  0  0  0  0  0  0  0  0  0  0
    1.6580   16.8130  -11.9920 N   0  0  0  0  0  2  0  0  0  0  0  0
    2.3630   16.6600  -11.2430 H   0  0  0  0  0  0  0  0  0  0  0  0
    0.5750   15.8710  -12.1280 C   0  0  2  0  0  0  0  0  0  0  0  0
    0.1290   15.9910  -13.1150 H   0  0  0  0  0  0  0  0  0  0  0  0
   -0.5220   16.1130  -11.1130 C   0  0  0  0  0  0  0  0  0  0  0  0
   -0.2990   16.7340  -10.0760 O   0  0  0  0  0  0  0  0  0  0  0  0
    1.1300   14.4960  -11.9520 C   0  0  0  0  0  0  0  0  0  0  0  0
    0.3140   13.7740  -11.9180 H   0  0  0  0  0  0  0  0  0  0  0  0
    1.6970   14.4460  -11.0220 H   0  0  0  0  0  0  0  0  0  0  0  0
    1.9940   14.1960  -13.0610 O   0  0  0  0  0  0  0  0  0  0  0  0
    2.3660   13.2850  -12.9510 H   0  0  0  0  0  0  0  0  0  0  0  0
   -1.7070   15.5990  -11.3820 N   0  0  0  0  0  0  0  0  0  0  0  0
   -1.8300   15.0390  -12.2500 H   0  0  0  0  0  0  0  0  0  0  0  0
   -2.8500   15.7940  -10.4960 C   0  0  2  0  0  0  0  0  0  0  0  0
   -2.4940   15.6940   -9.4710 H   0  0  0  0  0  0  0  0  0  0  0  0
   -3.9360   14.7420  -10.7100 C   0  0  0  0  0  0  0  0  0  0  0  0
   -4.1170   14.2150  -11.8220 O   0  0  0  0  0  0  0  0  0  0  0  0
   -3.4310   17.1680  -10.7260 C   0  0  0  0  0  0  0  0  0  0  0  0
   -3.6970   17.2780  -11.7770 H   0  0  0  0  0  0  0  0  0  0  0  0
   -2.6920   17.9230  -10.4590 H   0  0  0  0  0  0  0  0  0  0  0  0
   -4.5930   17.3400   -9.9250 O   0  0  0  0  0  0  0  0  0  0  0  0
   -4.9690   18.2430  -10.0800 H   0  0  0  0  0  0  0  0  0  0  0  0
   -4.6520   14.4140   -9.6350 N   0  0  0  0  0  0  0  0  0  0  0  0
   -4.3590   14.7920   -8.7110 H   0  0  0  0  0  0  0  0  0  0  0  0
   -5.8320   13.5460   -9.6910 C   0  0  2  0  0  0  0  0  0  0  0  0
   -5.6450   12.7780  -10.4420 H   0  0  0  0  0  0  0  0  0  0  0  0
   -7.0770   14.3290  -10.1220 C   0  0  0  0  0  3  0  0  0  0  0  0
   -8.0250   13.7390  -10.5890 O   0  0  0  0  0  0  0  0  0  0  0  0
   -6.0610   12.8570   -8.3570 C   0  0  0  0  0  0  0  0  0  0  0  0
   -5.9730   13.6020   -7.5670 H   0  0  0  0  0  0  0  0  0  0  0  0
   -7.0700   12.4440   -8.3540 H   0  0  0  0  0  0  0  0  0  0  0  0
   -5.0730   11.7210   -8.0610 C   0  0  0  0  0  0  0  0  0  0  0  0
   -4.0720   11.8810   -7.1020 C   0  0  0  0  0  0  0  0  0  0  0  0
   -3.9860   12.8270   -6.5670 H   0  0  0  0  0  0  0  0  0  0  0  0
   -5.1740   10.4980   -8.7080 C   0  0  0  0  0  0  0  0  0  0  0  0
   -5.9560   10.3530   -9.4530 H   0  0  0  0  0  0  0  0  0  0  0  0
   -3.1820   10.8480   -6.8190 C   0  0  0  0  0  0  0  0  0  0  0  0
   -2.4060   10.9870   -6.0660 H   0  0  0  0  0  0  0  0  0  0  0  0
   -4.2920    9.4420   -8.4250 C   0  0  0  0  0  0  0  0  0  0  0  0
   -4.4060    8.4830   -8.9310 H   0  0  0  0  0  0  0  0  0  0  0  0
   -3.2860    9.6220   -7.5080 C   0  0  0  0  0  0  0  0  0  0  0  0
   -2.5720    8.8220   -7.3140 H   0  0  0  0  0  0  0  0  0  0  0  0
   -3.3140    5.0230  -13.0570 N   0  0  0  0  0  2  0  0  0  0  0  0
   -4.1400    5.6150  -12.8370 H   0  0  0  0  0  0  0  0  0  0  0  0
   -2.5170    4.4610  -11.9940 C   0  0  2  0  0  0  0  0  0  0  0  0
   -1.7250    3.8470  -12.4230 H   0  0  0  0  0  0  0  0  0  0  0  0
   -3.4380    3.6400  -11.1070 C   0  0  0  0  0  3  0  0  0  0  0  0
   -4.4710    4.1900  -10.6370 O   0  0  0  0  0  0  0  0  0  0  0  0
   -1.8540    5.5840  -11.1350 C   0  0  0  0  0  0  0  0  0  0  0  0
   -2.6490    6.2450  -10.7900 H   0  0  0  0  0  0  0  0  0  0  0  0
   -1.1450    4.9970   -9.9330 C   0  0  0  0  0  0  0  0  0  0  0  0
   -1.8650    4.4610   -9.3150 H   0  0  0  0  0  0  0  0  0  0  0  0
   -0.3700    4.3090  -10.2700 H   0  0  0  0  0  0  0  0  0  0  0  0
   -0.6920    5.8000   -9.3520 H   0  0  0  0  0  0  0  0  0  0  0  0
   -0.8790    6.3820  -11.9530 C   0  0  0  0  0  0  0  0  0  0  0  0
   -0.0980    5.7220  -12.3300 H   0  0  0  0  0  0  0  0  0  0  0  0
   -1.4020    6.8440  -12.7900 H   0  0  0  0  0  0  0  0  0  0  0  0
   -0.4320    7.1570  -11.3300 H   0  0  0  0  0  0  0  0  0  0  0  0
   -4.5210    2.0210   -7.7850 N   0  0  0  0  0  2  0  0  0  0  0  0
   -5.4600    2.1270   -8.2190 H   0  0  0  0  0  0  0  0  0  0  0  0
   -4.3760    2.2860   -6.3400 C   0  0  2  0  0  0  0  0  0  0  0  0
   -3.3700    1.9630   -6.0710 H   0  0  0  0  0  0  0  0  0  0  0  0
   -5.3740    1.4700   -5.5200 C   0  0  0  0  0  3  0  0  0  0  0  0
   -6.6090    1.7400   -5.5300 O   0  0  0  0  0  0  0  0  0  0  0  0
   -4.4620    3.8040   -5.9870 C   0  0  2  0  0  0  0  0  0  0  0  0
   -5.4400    4.1780   -6.2900 H   0  0  0  0  0  0  0  0  0  0  0  0
   -3.3750    4.5860   -6.7450 C   0  0  0  0  0  0  0  0  0  0  0  0
   -2.4260    4.4330   -6.2310 H   0  0  0  0  0  0  0  0  0  0  0  0
   -3.3090    4.1820   -7.7550 H   0  0  0  0  0  0  0  0  0  0  0  0
   -4.3050    4.0130   -4.4580 C   0  0  0  0  0  0  0  0  0  0  0  0
   -5.1000    3.4810   -3.9360 H   0  0  0  0  0  0  0  0  0  0  0  0
   -3.3370    3.6280   -4.1370 H   0  0  0  0  0  0  0  0  0  0  0  0
   -4.3670    5.0770   -4.2300 H   0  0  0  0  0  0  0  0  0  0  0  0
   -3.6210    6.0930   -6.8510 C   0  0  0  0  0  0  0  0  0  0  0  0
   -4.5590    6.2710   -7.3760 H   0  0  0  0  0  0  0  0  0  0  0  0
   -3.6760    6.5220   -5.8510 H   0  0  0  0  0  0  0  0  0  0  0  0
   -2.8020    6.5560   -7.4010 H   0  0  0  0  0  0  0  0  0  0  0  0
   -7.1030    4.9550  -11.2140 N   0  0  0  0  0  2  0  0  0  0  0  0
   -6.1220    4.6450  -11.0650 H   0  0  0  0  0  0  0  0  0  0  0  0
   -7.3690    6.3930  -11.2260 C   0  0  2  0  0  0  0  0  0  0  0  0
   -8.4260    6.5500  -11.4390 H   0  0  0  0  0  0  0  0  0  0  0  0
   -6.5510    7.1110  -12.3230 C   0  0  0  0  0  3  0  0  0  0  0  0
   -5.3670    6.8340  -12.4820 O   0  0  0  0  0  0  0  0  0  0  0  0
   -6.9990    6.9690   -9.8590 C   0  0  0  0  0  0  0  0  0  0  0  0
   -5.9460    6.7590   -9.6690 H   0  0  0  0  0  0  0  0  0  0  0  0
   -7.1550    8.0480   -9.8840 H   0  0  0  0  0  0  0  0  0  0  0  0
   -7.8100    6.3970   -8.7320 C   0  0  0  0  0  0  0  0  0  0  0  0
   -9.1120    6.7880   -8.4820 N   0  0  0  0  0  0  0  0  0  0  0  0
   -7.5200    5.4300   -7.8250 C   0  0  0  0  0  0  0  0  0  0  0  0
   -6.5730    4.9000   -7.7210 H   0  0  0  0  0  0  0  0  0  0  0  0
   -9.5840    6.0790   -7.4730 C   0  0  0  0  0  0  0  0  0  0  0  0
  -10.5840    6.1660   -7.0470 H   0  0  0  0  0  0  0  0  0  0  0  0
   -8.6430    5.2470   -7.0660 N   0  0  0  0  0  0  0  0  0  0  0  0
   -4.3430    9.9870  -13.8600 N   0  0  0  0  0  2  0  0  0  0  0  0
   -3.9430    9.2670  -14.4950 H   0  0  0  0  0  0  0  0  0  0  0  0
   -3.4660   11.0950  -13.4060 C   0  0  2  0  0  0  0  0  0  0  0  0
   -3.9980   11.6020  -12.6010 H   0  0  0  0  0  0  0  0  0  0  0  0
   -3.1980   12.0700  -14.5610 C   0  0  0  0  0  3  0  0  0  0  0  0
   -2.6940   11.6660  -15.6100 O   0  0  0  0  0  0  0  0  0  0  0  0
   -2.1230   10.5980  -12.8370 C   0  0  0  0  0  0  0  0  0  0  0  0
   -1.6160   10.0380  -13.6230 H   0  0  0  0  0  0  0  0  0  0  0  0
   -1.2160   11.7770  -12.4230 C   0  0  0  0  0  0  0  0  0  0  0  0
   -1.0140   12.4010  -13.2930 H   0  0  0  0  0  0  0  0  0  0  0  0
   -1.7190   12.3690  -11.6580 H   0  0  0  0  0  0  0  0  0  0  0  0
   -0.2780   11.3900  -12.0260 H   0  0  0  0  0  0  0  0  0  0  0  0
   -2.3600    9.6900  -11.6480 C   0  0  0  0  0  0  0  0  0  0  0  0
   -2.8940   10.2400  -10.8730 H   0  0  0  0  0  0  0  0  0  0  0  0
   -2.9540    8.8310  -11.9610 H   0  0  0  0  0  0  0  0  0  0  0  0
   -1.4020    9.3470  -11.2570 H   0  0  0  0  0  0  0  0  0  0  0  0
   10.6540   11.3050   -5.5760 N   0  0  0  0  0  2  0  0  0  0  0  0
   10.3920   12.2850   -5.8030 H   0  0  0  0  0  0  0  0  0  0  0  0
   10.0940   10.6720   -4.3490 C   0  0  2  0  0  0  0  0  0  0  0  0
   10.8680    9.9920   -3.9930 H   0  0  0  0  0  0  0  0  0  0  0  0
    8.8430    9.8410   -4.6350 C   0  0  0  0  0  0  0  0  0  0  0  0
    8.3760    9.1070   -3.7350 O   0  0  0  0  0  0  0  0  0  0  0  0
    9.8210   11.6790   -3.2540 C   0  0  0  0  0  0  0  0  0  0  0  0
   10.7510   12.1790   -2.9810 H   0  0  0  0  0  0  0  0  0  0  0  0
    9.1020   12.4160   -3.6110 H   0  0  0  0  0  0  0  0  0  0  0  0
    9.4140   11.1650   -2.3830 H   0  0  0  0  0  0  0  0  0  0  0  0
    8.3280    9.9240   -5.8760 N   0  0  0  0  0  0  0  0  0  0  0  0
    8.8050   10.5390   -6.5650 H   0  0  0  0  0  0  0  0  0  0  0  0
    7.1420    9.2010   -6.3060 C   0  0  2  0  0  0  0  0  0  0  0  0
    6.4000    9.3360   -5.5190 H   0  0  0  0  0  0  0  0  0  0  0  0
    7.4250    7.7530   -6.4980 C   0  0  0  0  0  0  0  0  0  0  0  0
    8.5700    7.2700   -6.4620 O   0  0  0  0  0  0  0  0  0  0  0  0
    6.6180    9.7450   -7.6390 C   0  0  0  0  0  0  0  0  0  0  0  0
    5.6190    9.3460   -7.8150 H   0  0  0  0  0  0  0  0  0  0  0  0
    7.2840    9.4210   -8.4390 H   0  0  0  0  0  0  0  0  0  0  0  0
    6.5530   11.1910   -7.6390 O   0  0  0  0  0  0  0  0  0  0  0  0
    6.2110   11.5050   -8.5140 H   0  0  0  0  0  0  0  0  0  0  0  0
    6.3550    7.0580   -6.8100 N   0  0  0  0  0  0  0  0  0  0  0  0
    5.4610    7.5640   -6.9720 H   0  0  0  0  0  0  0  0  0  0  0  0
    6.3700    5.6400   -6.9350 C   0  0  2  0  0  0  0  0  0  0  0  0
    7.1620    5.1570   -6.3640 H   0  0  0  0  0  0  0  0  0  0  0  0
    6.5790    5.3360   -8.4090 C   0  0  0  0  0  3  0  0  0  0  0  0
    6.0940    6.0730   -9.2600 O   0  0  0  0  0  0  0  0  0  0  0  0
    5.0220    5.1190   -6.4090 C   0  0  0  0  0  0  0  0  0  0  0  0
    4.2350    5.7010   -6.8870 H   0  0  0  0  0  0  0  0  0  0  0  0
    4.9330    4.0750   -6.7090 H   0  0  0  0  0  0  0  0  0  0  0  0
    4.7900    5.1880   -4.8740 C   0  0  0  0  0  0  0  0  0  0  0  0
    5.0100    6.2120   -4.5710 H   0  0  0  0  0  0  0  0  0  0  0  0
    3.3110    4.7880   -4.5700 C   0  0  0  0  0  0  0  0  0  0  0  0
    2.6380    5.4790   -5.0770 H   0  0  0  0  0  0  0  0  0  0  0  0
    3.1300    3.7740   -4.9260 H   0  0  0  0  0  0  0  0  0  0  0  0
    3.1370    4.8330   -3.4950 H   0  0  0  0  0  0  0  0  0  0  0  0
    5.7270    4.2640   -4.0560 C   0  0  0  0  0  0  0  0  0  0  0  0
    5.5710    3.2290   -4.3610 H   0  0  0  0  0  0  0  0  0  0  0  0
    6.7640    4.5460   -4.2400 H   0  0  0  0  0  0  0  0  0  0  0  0
    5.5030    4.3690   -2.9940 H   0  0  0  0  0  0  0  0  0  0  0  0
    5.3050    3.2970  -10.3550 N   0  0  0  0  0  2  0  0  0  0  0  0
    5.3190    3.2100   -9.3190 H   0  0  0  0  0  0  0  0  0  0  0  0
    4.1120    2.9140  -11.0930 C   0  0  2  0  0  0  0  0  0  0  0  0
    4.3770    2.2010  -11.8730 H   0  0  0  0  0  0  0  0  0  0  0  0
    3.5250    4.1710  -11.7290 C   0  0  0  0  0  0  0  0  0  0  0  0
    2.8290    4.0740  -12.7370 O   0  0  0  0  0  0  0  0  0  0  0  0
    3.0890    2.1810  -10.2000 C   0  0  0  0  0  0  0  0  0  0  0  0
    2.2390    1.8870  -10.8160 H   0  0  0  0  0  0  0  0  0  0  0  0
    3.5630    1.2900   -9.7890 H   0  0  0  0  0  0  0  0  0  0  0  0
    2.5850    3.0260   -9.0590 C   0  0  0  0  0  0  0  0  0  0  0  0
    3.2850    2.9380   -8.2280 H   0  0  0  0  0  0  0  0  0  0  0  0
    2.5440    4.0640   -9.3890 H   0  0  0  0  0  0  0  0  0  0  0  0
    1.2080    2.6210   -8.5730 C   0  0  0  0  0  0  0  0  0  0  0  0
    0.7530    3.4710   -8.0650 H   0  0  0  0  0  0  0  0  0  0  0  0
    0.6000    2.3470   -9.4350 H   0  0  0  0  0  0  0  0  0  0  0  0
    1.2480    1.4500   -7.6160 C   0  0  0  0  0  0  0  0  0  0  0  0
    2.1300    1.5540   -6.9850 H   0  0  0  0  0  0  0  0  0  0  0  0
    1.3270    0.5330   -8.2000 H   0  0  0  0  0  0  0  0  0  0  0  0
    0.0220    1.3380   -6.7120 N   0  0  0  0  0  4  0  0  0  0  0  0
   -0.0630    2.2000   -6.1370 H   0  0  0  0  0  0  0  0  0  0  0  0
   -0.8300    1.2250   -7.2980 H   0  0  0  0  0  0  0  0  0  0  0  0
    0.1270    0.5130   -6.0880 H   0  0  0  0  0  0  0  0  0  0  0  0
    3.8150    5.3320  -11.1570 N   0  0  0  0  0  0  0  0  0  0  0  0
    4.3440    5.3460  -10.2620 H   0  0  0  0  0  0  0  0  0  0  0  0
    3.4060    6.5700  -11.7600 C   0  0  2  0  0  0  0  0  0  0  0  0
    2.6010    6.3500  -12.4610 H   0  0  0  0  0  0  0  0  0  0  0  0
    4.5830    7.2000  -12.5340 C   0  0  0  0  0  3  0  0  0  0  0  0
    4.3900    7.6850  -13.6440 O   0  0  0  0  0  0  0  0  0  0  0  0
    2.8330    7.5740  -10.6990 C   0  0  0  0  0  0  0  0  0  0  0  0
    1.7520    7.4410  -10.6510 H   0  0  0  0  0  0  0  0  0  0  0  0
    3.2710    7.3350   -9.7300 H   0  0  0  0  0  0  0  0  0  0  0  0
    3.1220    9.0400  -11.0060 C   0  0  0  0  0  0  0  0  0  0  0  0
    2.4190    9.6990  -11.9770 C   0  0  0  0  0  0  0  0  0  0  0  0
    1.6340    9.1740  -12.5200 H   0  0  0  0  0  0  0  0  0  0  0  0
    4.1580    9.7400  -10.3510 C   0  0  0  0  0  0  0  0  0  0  0  0
    4.7460    9.2230   -9.5930 H   0  0  0  0  0  0  0  0  0  0  0  0
    2.7000   11.0760  -12.2930 C   0  0  0  0  0  0  0  0  0  0  0  0
    2.1060   11.5870  -13.0510 H   0  0  0  0  0  0  0  0  0  0  0  0
    4.4620   11.1120  -10.6520 C   0  0  0  0  0  0  0  0  0  0  0  0
    5.2550   11.6380  -10.1200 H   0  0  0  0  0  0  0  0  0  0  0  0
    3.7150   11.7570  -11.6450 C   0  0  0  0  0  0  0  0  0  0  0  0
    3.9630   13.0750  -12.0290 O   0  0  0  0  0  0  0  0  0  0  0  0
    3.3260   13.3360  -12.7410 H   0  0  0  0  0  0  0  0  0  0  0  0
   10.9780    6.3050   -4.9480 N   0  0  0  0  0  2  0  0  0  0  0  0
   10.1880    5.9880   -5.5450 H   0  0  0  0  0  0  0  0  0  0  0  0
   10.7200    6.5580   -3.5270 C   0  0  2  0  0  0  0  0  0  0  0  0
   10.9690    7.6020   -3.3390 H   0  0  0  0  0  0  0  0  0  0  0  0
   11.6250    5.7190   -2.6400 C   0  0  0  0  0  3  0  0  0  0  0  0
   12.2670    6.2920   -1.7970 O   0  0  0  0  0  0  0  0  0  0  0  0
    9.2040    6.4100   -3.1540 C   0  0  0  0  0  0  0  0  0  0  0  0
    8.6640    7.2090   -3.6620 H   0  0  0  0  0  0  0  0  0  0  0  0
    8.8680    5.4460   -3.5360 H   0  0  0  0  0  0  0  0  0  0  0  0
    8.8060    6.4750   -1.6050 C   0  0  0  0  0  0  0  0  0  0  0  0
    9.0730    5.5270   -1.1380 H   0  0  0  0  0  0  0  0  0  0  0  0
    9.3690    7.2810   -1.1350 H   0  0  0  0  0  0  0  0  0  0  0  0
    7.2710    6.7340   -1.3710 C   0  0  0  0  0  0  0  0  0  0  0  0
    6.9860    6.4380   -0.3620 H   0  0  0  0  0  0  0  0  0  0  0  0
    6.6770    6.1740   -2.0940 H   0  0  0  0  0  0  0  0  0  0  0  0
    7.0740    8.1750   -1.5550 N   0  0  0  0  0  0  0  0  0  0  0  0
    7.9010    8.7810   -1.3810 H   0  0  0  0  0  0  0  0  0  0  0  0
    5.9530    8.7950   -1.9200 C   0  0  0  0  0  0  0  0  0  0  0  0
    4.8300    8.1290   -2.1550 N   0  0  0  0  0  4  0  0  0  0  0  0
    4.8090    7.0940   -2.0560 H   0  0  0  0  0  0  0  0  0  0  0  0
    3.9710    8.6420   -2.4390 H   0  0  0  0  0  0  0  0  0  0  0  0
    5.9750   10.1110   -2.0680 N   0  0  0  0  0  0  0  0  0  0  0  0
    6.8550   10.6390   -1.9000 H   0  0  0  0  0  0  0  0  0  0  0  0
    5.1120   10.6170   -2.3520 H   0  0  0  0  0  0  0  0  0  0  0  0
   11.6800   13.6970    2.1500 N   0  0  0  0  0  2  0  0  0  0  0  0
   11.0060   14.3750    1.7400 H   0  0  0  0  0  0  0  0  0  0  0  0
   12.3750   12.7460    1.2760 C   0  0  2  0  0  0  0  0  0  0  0  0
   12.5890   11.8420    1.8460 H   0  0  0  0  0  0  0  0  0  0  0  0
   13.6730   13.4000    0.7880 C   0  0  0  0  0  3  0  0  0  0  0  0
   13.6690   14.3550    0.0170 O   0  0  0  0  0  0  0  0  0  0  0  0
   11.5200   12.3200    0.0890 C   0  0  0  0  0  0  0  0  0  0  0  0
   11.3570   13.1990   -0.5350 H   0  0  0  0  0  0  0  0  0  0  0  0
   12.0810   11.5750   -0.4740 H   0  0  0  0  0  0  0  0  0  0  0  0
   10.1640   11.7270    0.4160 C   0  0  0  0  0  0  0  0  0  0  0  0
   10.0310   10.3500    0.7370 C   0  0  0  0  0  0  0  0  0  0  0  0
   10.9170    9.7150    0.7680 H   0  0  0  0  0  0  0  0  0  0  0  0
    9.0060   12.5450    0.3790 C   0  0  0  0  0  0  0  0  0  0  0  0
    9.1020   13.6000    0.1210 H   0  0  0  0  0  0  0  0  0  0  0  0
    8.7740    9.8000    1.0140 C   0  0  0  0  0  0  0  0  0  0  0  0
    8.6750    8.7420    1.2580 H   0  0  0  0  0  0  0  0  0  0  0  0
    7.7410   12.0170    0.6690 C   0  0  0  0  0  0  0  0  0  0  0  0
    6.8570   12.6550    0.6610 H   0  0  0  0  0  0  0  0  0  0  0  0
    7.6340   10.6360    0.9730 C   0  0  0  0  0  0  0  0  0  0  0  0
    6.3730   10.1120    1.2340 O   0  0  0  0  0  0  0  0  0  0  0  0
    6.4530    9.1450    1.4290 H   0  0  0  0  0  0  0  0  0  0  0  0
    6.8140   13.4770   -8.2220 H   0  0  0  0  0  0  0  0  0  0  0  0
   -8.7350    4.5970   -6.3320 H   0  0  0  0  0  0  0  0  0  0  0  0
  1  2  1  0
  1  3  1  0
  3  4  1  6
  3  5  1  0
  3  7  1  0
  5  6  2  0
  7  8  1  0
  7  9  1  0
  7 10  1  0
 10 11  2  0
 10 12  1  0
 12250  1  0
 13 14  1  0
 13 15  1  0
 15 16  1  6
 15 17  1  0
 15 19  1  0
 17 18  2  0
 17 24  1  0
 19 20  1  0
 19 21  1  0
 19 22  1  0
 22 23  1  0
 24 25  1  0
 24 26  1  0
 26 27  1  1
 26 28  1  0
 26 30  1  0
 28 29  2  0
 28 35  1  0
 30 31  1  0
 30 32  1  0
 30 33  1  0
 33 34  1  0
 35 36  1  0
 35 37  1  0
 37 38  1  6
 37 39  1  0
 37 41  1  0
 39 40  2  0
 41 42  1  0
 41 43  1  0
 41 44  1  0
 44 45  2  0
 44 47  1  0
 45 46  1  0
 45 49  1  0
 47 48  1  0
 47 51  2  0
 49 50  1  0
 49 53  2  0
 51 52  1  0
 51 53  1  0
 53 54  1  0
 55 56  1  0
 55 57  1  0
 57 58  1  6
 57 59  1  0
 57 61  1  0
 59 60  2  0
 61 62  1  0
 61 63  1  0
 61 67  1  0
 63 64  1  0
 63 65  1  0
 63 66  1  0
 67 68  1  0
 67 69  1  0
 67 70  1  0
 71 72  1  0
 71 73  1  0
 73 74  1  1
 73 75  1  0
 73 77  1  0
 75 76  2  0
 77 78  1  6
 77 79  1  0
 77 82  1  0
 79 80  1  0
 79 81  1  0
 79 86  1  0
 82 83  1  0
 82 84  1  0
 82 85  1  0
 86 87  1  0
 86 88  1  0
 86 89  1  0
 90 91  1  0
 90 92  1  0
 92 93  1  6
 92 94  1  0
 92 96  1  0
 94 95  2  0
 96 97  1  0
 96 98  1  0
 96 99  1  0
 99100  1  0
 99101  2  0
100103  2  0
101102  1  0
101105  1  0
103104  1  0
103105  1  0
105251  1  0
106107  1  0
106108  1  0
108109  1  1
108110  1  0
108112  1  0
110111  2  0
112113  1  0
112114  1  0
112118  1  0
114115  1  0
114116  1  0
114117  1  0
118119  1  0
118120  1  0
118121  1  0
122123  1  0
122124  1  0
124125  1  1
124126  1  0
124128  1  0
126127  2  0
126132  1  0
128129  1  0
128130  1  0
128131  1  0
132133  1  0
132134  1  0
134135  1  1
134136  1  0
134138  1  0
136137  2  0
136143  1  0
138139  1  0
138140  1  0
138141  1  0
141142  1  0
143144  1  0
143145  1  0
145146  1  1
145147  1  0
145149  1  0
147148  2  0
149150  1  0
149151  1  0
149152  1  0
152153  1  0
152154  1  0
152158  1  0
154155  1  0
154156  1  0
154157  1  0
158159  1  0
158160  1  0
158161  1  0
162163  1  0
162164  1  0
164165  1  6
164166  1  0
164168  1  0
166167  2  0
166184  1  0
168169  1  0
168170  1  0
168171  1  0
171172  1  0
171173  1  0
171174  1  0
174175  1  0
174176  1  0
174177  1  0
177178  1  0
177179  1  0
177180  1  0
180181  1  0
180182  1  0
180183  1  0
184185  1  0
184186  1  0
186187  1  6
186188  1  0
186190  1  0
188189  2  0
190191  1  0
190192  1  0
190193  1  0
193194  2  0
193196  1  0
194195  1  0
194198  1  0
196197  1  0
196200  2  0
198199  1  0
198202  2  0
200201  1  0
200202  1  0
202203  1  0
203204  1  0
205206  1  0
205207  1  0
207208  1  6
207209  1  0
207211  1  0
209210  2  0
211212  1  0
211213  1  0
211214  1  0
214215  1  0
214216  1  0
214217  1  0
217218  1  0
217219  1  0
217220  1  0
220221  1  0
220222  1  0
222223  2  0
222226  1  0
223224  1  0
223225  1  0
226227  1  0
226228  1  0
229230  1  0
229231  1  0
231232  1  1
231233  1  0
231235  1  0
233234  2  0
235236  1  0
235237  1  0
235238  1  0
238239  2  0
238241  1  0
239240  1  0
239243  1  0
241242  1  0
241245  2  0
243244  1  0
243247  2  0
245246  1  0
245247  1  0
247248  1  0
248249  1  0
M  RAD  8   1   2   5   2  13   2  39   2  55   2  59   2  71   2  75   2
M  RAD  8  90   2  94   2 106   2 110   2 122   2 147   2 162   2 188   2
M  CHG  2 180   1 223   1
M  RAD  4 205   2 209   2 229   2 233   2
M  END
$$$$

     RDKit          3D

251245  0  0  0  0  0  0  0  0999 V2000
    8.2390   15.7430  -10.2460 N   0  0  0  0  0  2  0  0  0  0  0  0
    8.4060   14.8450   -9.7480 H   0  0  0  0  0  0  0  0  0  0  0  0
    7.1270   16.5820   -9.8330 C   0  0  2  0  0  0  0  0  0  0  0  0
    6.5240   16.7530  -10.7240 H   0  0  0  0  0  0  0  0  0  0  0  0
    7.5010   17.9630   -9.3590 C   0  0  0  0  0  3  0  0  0  0  0  0
    8.3130   18.1090   -8.4540 O   0  0  0  0  0  0  0  0  0  0  0  0
    6.3630   15.8620   -8.7680 C   0  0  0  0  0  0  0  0  0  0  0  0
    7.0440   15.5910   -7.9610 H   0  0  0  0  0  0  0  0  0  0  0  0
    5.5850   16.5200   -8.3800 H   0  0  0  0  0  0  0  0  0  0  0  0
    5.7360   14.6350   -9.3040 C   0  0  0  0  0  0  0  0  0  0  0  0
    4.8520   14.7920  -10.1880 O   0  0  0  0  0  0  0  0  0  0  0  0
    6.1520   13.5130   -8.8840 O   0  0  0  0  0  0  0  0  0  0  0  0
    1.6580   16.8130  -11.9920 N   0  0  0  0  0  2  0  0  0  0  0  0
    2.3630   16.6600  -11.2430 H   0  0  0  0  0  0  0  0  0  0  0  0
    0.5750   15.8710  -12.1280 C   0  0  2  0  0  0  0  0  0  0  0  0
    0.1290   15.9910  -13.1150 H   0  0  0  0  0  0  0  0  0  0  0  0
   -0.5220   16.1130  -11.1130 C   0  0  0  0  0  0  0  0  0  0  0  0
   -0.2990   16.7340  -10.0760 O   0  0  0  0  0  0  0  0  0  0  0  0
    1.1300   14.4960  -11.9520 C   0  0  0  0  0  0  0  0  0  0  0  0
    0.3140   13.7740  -11.9180 H   0  0  0  0  0  0  0  0  0  0  0  0
    1.6970   14.4460  -11.0220 H   0  0  0  0  0  0  0  0  0  0  0  0
    1.9940   14.1960  -13.0610 O   0  0  0  0  0  0  0  0  0  0  0  0
    2.3660   13.2850  -12.9510 H   0  0  0  0  0  0  0  0  0  0  0  0
   -1.7070   15.5990  -11.3820 N   0  0  0  0  0  0  0  0  0  0  0  0
   -1.8300   15.0390  -12.2500 H   0  0  0  0  0  0  0  0  0  0  0  0
   -2.8500   15.7940  -10.4960 C   0  0  2  0  0  0  0  0  0  0  0  0
   -2.4940   15.6940   -9.4710 H   0  0  0  0  0  0  0  0  0  0  0  0
   -3.9360   14.7420  -10.7100 C   0  0  0  0  0  0  0  0  0  0  0  0
   -4.1170   14.2150  -11.8220 O   0  0  0  0  0  0  0  0  0  0  0  0
   -3.4310   17.1680  -10.7260 C   0  0  0  0  0  0  0  0  0  0  0  0
   -3.6970   17.2780  -11.7770 H   0  0  0  0  0  0  0  0  0  0  0  0
   -2.6920   17.9230  -10.4590 H   0  0  0  0  0  0  0  0  0  0  0  0
   -4.5930   17.3400   -9.9250 O   0  0  0  0  0  0  0  0  0  0  0  0
   -4.9690   18.2430  -10.0800 H   0  0  0  0  0  0  0  0  0  0  0  0
   -4.6520   14.4140   -9.6350 N   0  0  0  0  0  0  0  0  0  0  0  0
   -4.3590   14.7920   -8.7110 H   0  0  0  0  0  0  0  0  0  0  0  0
   -5.8320   13.5460   -9.6910 C   0  0  2  0  0  0  0  0  0  0  0  0
   -5.6450   12.7780  -10.4420 H   0  0  0  0  0  0  0  0  0  0  0  0
   -7.0770   14.3290  -10.1220 C   0  0  0  0  0  3  0  0  0  0  0  0
   -8.0250   13.7390  -10.5890 O   0  0  0  0  0  0  0  0  0  0  0  0
   -6.0610   12.8570   -8.3570 C   0  0  0  0  0  0  0  0  0  0  0  0
   -5.9730   13.6020   -7.5670 H   0  0  0  0  0  0  0  0  0  0  0  0
   -7.0700   12.4440   -8.3540 H   0  0  0  0  0  0  0  0  0  0  0  0
   -5.0730   11.7210   -8.0610 C   0  0  0  0  0  0  0  0  0  0  0  0
   -4.0720   11.8810   -7.1020 C   0  0  0  0  0  0  0  0  0  0  0  0
   -3.9860   12.8270   -6.5670 H   0  0  0  0  0  0  0  0  0  0  0  0
   -5.1740   10.4980   -8.7080 C   0  0  0  0  0  0  0  0  0  0  0  0
   -5.9560   10.3530   -9.4530 H   0  0  0  0  0  0  0  0  0  0  0  0
   -3.1820   10.8480   -6.8190 C   0  0  0  0  0  0  0  0  0  0  0  0
   -2.4060   10.9870   -6.0660 H   0  0  0  0  0  0  0  0  0  0  0  0
   -4.2920    9.4420   -8.4250 C   0  0  0  0  0  0  0  0  0  0  0  0
   -4.4060    8.4830   -8.9310 H   0  0  0  0  0  0  0  0  0  0  0  0
   -3.2860    9.6220   -7.5080 C   0  0  0  0  0  0  0  0  0  0  0  0
   -2.5720    8.8220   -7.3140 H   0  0  0  0  0  0  0  0  0  0  0  0
   -3.3140    5.0230  -13.0570 N   0  0  0  0  0  2  0  0  0  0  0  0
   -4.1400    5.6150  -12.8370 H   0  0  0  0  0  0  0  0  0  0  0  0
   -2.5170    4.4610  -11.9940 C   0  0  2  0  0  0  0  0  0  0  0  0
   -1.7250    3.8470  -12.4230 H   0  0  0  0  0  0  0  0  0  0  0  0
   -3.4380    3.6400  -11.1070 C   0  0  0  0  0  3  0  0  0  0  0  0
   -4.4710    4.1900  -10.6370 O   0  0  0  0  0  0  0  0  0  0  0  0
   -1.8540    5.5840  -11.1350 C   0  0  0  0  0  0  0  0  0  0  0  0
   -2.6490    6.2450  -10.7900 H   0  0  0  0  0  0  0  0  0  0  0  0
   -1.1450    4.9970   -9.9330 C   0  0  0  0  0  0  0  0  0  0  0  0
   -1.8650    4.4610   -9.3150 H   0  0  0  0  0  0  0  0  0  0  0  0
   -0.3700    4.3090  -10.2700 H   0  0  0  0  0  0  0  0  0  0  0  0
   -0.6920    5.8000   -9.3520 H   0  0  0  0  0  0  0  0  0  0  0  0
   -0.8790    6.3820  -11.9530 C   0  0  0  0  0  0  0  0  0  0  0  0
   -0.0980    5.7220  -12.3300 H   0  0  0  0  0  0  0  0  0  0  0  0
   -1.4020    6.8440  -12.7900 H   0  0  0  0  0  0  0  0  0  0  0  0
   -0.4320    7.1570  -11.3300 H   0  0  0  0  0  0  0  0  0  0  0  0
   -4.5210    2.0210   -7.7850 N   0  0  0  0  0  2  0  0  0  0  0  0
   -5.4600    2.1270   -8.2190 H   0  0  0  0  0  0  0  0  0  0  0  0
   -4.3760    2.2860   -6.3400 C   0  0  2  0  0  0  0  0  0  0  0  0
   -3.3700    1.9630   -6.0710 H   0  0  0  0  0  0  0  0  0  0  0  0
   -5.3740    1.4700   -5.5200 C   0  0  0  0  0  3  0  0  0  0  0  0
   -6.6090    1.7400   -5.5300 O   0  0  0  0  0  0  0  0  0  0  0  0
   -4.4620    3.8040   -5.9870 C   0  0  2  0  0  0  0  0  0  0  0  0
   -5.4400    4.1780   -6.2900 H   0  0  0  0  0  0  0  0  0  0  0  0
   -3.3750    4.5860   -6.7450 C   0  0  0  0  0  0  0  0  0  0  0  0
   -2.4260    4.4330   -6.2310 H   0  0  0  0  0  0  0  0  0  0  0  0
   -3.3090    4.1820   -7.7550 H   0  0  0  0  0  0  0  0  0  0  0  0
   -4.3050    4.0130   -4.4580 C   0  0  0  0  0  0  0  0  0  0  0  0
   -5.1000    3.4810   -3.9360 H   0  0  0  0  0  0  0  0  0  0  0  0
   -3.3370    3.6280   -4.1370 H   0  0  0  0  0  0  0  0  0  0  0  0
   -4.3670    5.0770   -4.2300 H   0  0  0  0  0  0  0  0  0  0  0  0
   -3.6210    6.0930   -6.8510 C   0  0  0  0  0  0  0  0  0  0  0  0
   -4.5590    6.2710   -7.3760 H   0  0  0  0  0  0  0  0  0  0  0  0
   -3.6760    6.5220   -5.8510 H   0  0  0  0  0  0  0  0  0  0  0  0
   -2.8020    6.5560   -7.4010 H   0  0  0  0  0  0  0  0  0  0  0  0
   -7.1030    4.9550  -11.2140 N   0  0  0  0  0  2  0  0  0  0  0  0
   -6.1220    4.6450  -11.0650 H   0  0  0  0  0  0  0  0  0  0  0  0
   -7.3690    6.3930  -11.2260 C   0  0  2  0  0  0  0  0  0  0  0  0
   -8.4260    6.5500  -11.4390 H   0  0  0  0  0  0  0  0  0  0  0  0
   -6.5510    7.1110  -12.3230 C   0  0  0  0  0  3  0  0  0  0  0  0
   -5.3670    6.8340  -12.4820 O   0  0  0  0  0  0  0  0  0  0  0  0
   -6.9990    6.9690   -9.8590 C   0  0  0  0  0  0  0  0  0  0  0  0
   -5.9460    6.7590   -9.6690 H   0  0  0  0  0  0  0  0  0  0  0  0
   -7.1550    8.0480   -9.8840 H   0  0  0  0  0  0  0  0  0  0  0  0
   -7.8100    6.3970   -8.7320 C   0  0  0  0  0  0  0  0  0  0  0  0
   -9.1120    6.7880   -8.4820 N   0  0  0  0  0  0  0  0  0  0  0  0
   -7.5200    5.4300   -7.8250 C   0  0  0  0  0  0  0  0  0  0  0  0
   -6.5730    4.9000   -7.7210 H   0  0  0  0  0  0  0  0  0  0  0  0
   -9.5840    6.0790   -7.4730 C   0  0  0  0  0  0  0  0  0  0  0  0
  -10.5840    6.1660   -7.0470 H   0  0  0  0  0  0  0  0  0  0  0  0
   -8.6430    5.2470   -7.0660 N   0  0  0  0  0  0  0  0  0  0  0  0
   -4.3430    9.9870  -13.8600 N   0  0  0  0  0  2  0  0  0  0  0  0
   -3.9430    9.2670  -14.4950 H   0  0  0  0  0  0  0  0  0  0  0  0
   -3.4660   11.0950  -13.4060 C   0  0  2  0  0  0  0  0  0  0  0  0
   -3.9980   11.6020  -12.6010 H   0  0  0  0  0  0  0  0  0  0  0  0
   -3.1980   12.0700  -14.5610 C   0  0  0  0  0  3  0  0  0  0  0  0
   -2.6940   11.6660  -15.6100 O   0  0  0  0  0  0  0  0  0  0  0  0
   -2.1230   10.5980  -12.8370 C   0  0  0  0  0  0  0  0  0  0  0  0
   -1.6160   10.0380  -13.6230 H   0  0  0  0  0  0  0  0  0  0  0  0
   -1.2160   11.7770  -12.4230 C   0  0  0  0  0  0  0  0  0  0  0  0
   -1.0140   12.4010  -13.2930 H   0  0  0  0  0  0  0  0  0  0  0  0
   -1.7190   12.3690  -11.6580 H   0  0  0  0  0  0  0  0  0  0  0  0
   -0.2780   11.3900  -12.0260 H   0  0  0  0  0  0  0  0  0  0  0  0
   -2.3600    9.6900  -11.6480 C   0  0  0  0  0  0  0  0  0  0  0  0
   -2.8940   10.2400  -10.8730 H   0  0  0  0  0  0  0  0  0  0  0  0
   -2.9540    8.8310  -11.9610 H   0  0  0  0  0  0  0  0  0  0  0  0
   -1.4020    9.3470  -11.2570 H   0  0  0  0  0  0  0  0  0  0  0  0
   10.6540   11.3050   -5.5760 N   0  0  0  0  0  2  0  0  0  0  0  0
   10.3920   12.2850   -5.8030 H   0  0  0  0  0  0  0  0  0  0  0  0
   10.0940   10.6720   -4.3490 C   0  0  2  0  0  0  0  0  0  0  0  0
   10.8680    9.9920   -3.9930 H   0  0  0  0  0  0  0  0  0  0  0  0
    8.8430    9.8410   -4.6350 C   0  0  0  0  0  0  0  0  0  0  0  0
    8.3760    9.1070   -3.7350 O   0  0  0  0  0  0  0  0  0  0  0  0
    9.8210   11.6790   -3.2540 C   0  0  0  0  0  0  0  0  0  0  0  0
   10.7510   12.1790   -2.9810 H   0  0  0  0  0  0  0  0  0  0  0  0
    9.1020   12.4160   -3.6110 H   0  0  0  0  0  0  0  0  0  0  0  0
    9.4140   11.1650   -2.3830 H   0  0  0  0  0  0  0  0  0  0  0  0
    8.3280    9.9240   -5.8760 N   0  0  0  0  0  0  0  0  0  0  0  0
    8.8050   10.5390   -6.5650 H   0  0  0  0  0  0  0  0  0  0  0  0
    7.1420    9.2010   -6.3060 C   0  0  2  0  0  0  0  0  0  0  0  0
    6.4000    9.3360   -5.5190 H   0  0  0  0  0  0  0  0  0  0  0  0
    7.4250    7.7530   -6.4980 C   0  0  0  0  0  0  0  0  0  0  0  0
    8.5700    7.2700   -6.4620 O   0  0  0  0  0  0  0  0  0  0  0  0
    6.6180    9.7450   -7.6390 C   0  0  0  0  0  0  0  0  0  0  0  0
    5.6190    9.3460   -7.8150 H   0  0  0  0  0  0  0  0  0  0  0  0
    7.2840    9.4210   -8.4390 H   0  0  0  0  0  0  0  0  0  0  0  0
    6.5530   11.1910   -7.6390 O   0  0  0  0  0  0  0  0  0  0  0  0
    6.2110   11.5050   -8.5140 H   0  0  0  0  0  0  0  0  0  0  0  0
    6.3550    7.0580   -6.8100 N   0  0  0  0  0  0  0  0  0  0  0  0
    5.4610    7.5640   -6.9720 H   0  0  0  0  0  0  0  0  0  0  0  0
    6.3700    5.6400   -6.9350 C   0  0  2  0  0  0  0  0  0  0  0  0
    7.1620    5.1570   -6.3640 H   0  0  0  0  0  0  0  0  0  0  0  0
    6.5790    5.3360   -8.4090 C   0  0  0  0  0  3  0  0  0  0  0  0
    6.0940    6.0730   -9.2600 O   0  0  0  0  0  0  0  0  0  0  0  0
    5.0220    5.1190   -6.4090 C   0  0  0  0  0  0  0  0  0  0  0  0
    4.2350    5.7010   -6.8870 H   0  0  0  0  0  0  0  0  0  0  0  0
    4.9330    4.0750   -6.7090 H   0  0  0  0  0  0  0  0  0  0  0  0
    4.7900    5.1880   -4.8740 C   0  0  0  0  0  0  0  0  0  0  0  0
    5.0100    6.2120   -4.5710 H   0  0  0  0  0  0  0  0  0  0  0  0
    3.3110    4.7880   -4.5700 C   0  0  0  0  0  0  0  0  0  0  0  0
    2.6380    5.4790   -5.0770 H   0  0  0  0  0  0  0  0  0  0  0  0
    3.1300    3.7740   -4.9260 H   0  0  0  0  0  0  0  0  0  0  0  0
    3.1370    4.8330   -3.4950 H   0  0  0  0  0  0  0  0  0  0  0  0
    5.7270    4.2640   -4.0560 C   0  0  0  0  0  0  0  0  0  0  0  0
    5.5710    3.2290   -4.3610 H   0  0  0  0  0  0  0  0  0  0  0  0
    6.7640    4.5460   -4.2400 H   0  0  0  0  0  0  0  0  0  0  0  0
    5.5030    4.3690   -2.9940 H   0  0  0  0  0  0  0  0  0  0  0  0
    5.3050    3.2970  -10.3550 N   0  0  0  0  0  2  0  0  0  0  0  0
    5.3190    3.2100   -9.3190 H   0  0  0  0  0  0  0  0  0  0  0  0
    4.1120    2.9140  -11.0930 C   0  0  2  0  0  0  0  0  0  0  0  0
    4.3770    2.2010  -11.8730 H   0  0  0  0  0  0  0  0  0  0  0  0
    3.5250    4.1710  -11.7290 C   0  0  0  0  0  0  0  0  0  0  0  0
    2.8290    4.0740  -12.7370 O   0  0  0  0  0  0  0  0  0  0  0  0
    3.0890    2.1810  -10.2000 C   0  0  0  0  0  0  0  0  0  0  0  0
    2.2390    1.8870  -10.8160 H   0  0  0  0  0  0  0  0  0  0  0  0
    3.5630    1.2900   -9.7890 H   0  0  0  0  0  0  0  0  0  0  0  0
    2.5850    3.0260   -9.0590 C   0  0  0  0  0  0  0  0  0  0  0  0
    3.2850    2.9380   -8.2280 H   0  0  0  0  0  0  0  0  0  0  0  0
    2.5440    4.0640   -9.3890 H   0  0  0  0  0  0  0  0  0  0  0  0
    1.2080    2.6210   -8.5730 C   0  0  0  0  0  0  0  0  0  0  0  0
    0.7530    3.4710   -8.0650 H   0  0  0  0  0  0  0  0  0  0  0  0
    0.6000    2.3470   -9.4350 H   0  0  0  0  0  0  0  0  0  0  0  0
    1.2480    1.4500   -7.6160 C   0  0  0  0  0  0  0  0  0  0  0  0
    2.1300    1.5540   -6.9850 H   0  0  0  0  0  0  0  0  0  0  0  0
    1.3270    0.5330   -8.2000 H   0  0  0  0  0  0  0  0  0  0  0  0
    0.0220    1.3380   -6.7120 N   0  0  0  0  0  4  0  0  0  0  0  0
   -0.0630    2.2000   -6.1370 H   0  0  0  0  0  0  0  0  0  0  0  0
   -0.8300    1.2250   -7.2980 H   0  0  0  0  0  0  0  0  0  0  0  0
    0.1270    0.5130   -6.0880 H   0  0  0  0  0  0  0  0  0  0  0  0
    3.8150    5.3320  -11.1570 N   0  0  0  0  0  0  0  0  0  0  0  0
    4.3440    5.3460  -10.2620 H   0  0  0  0  0  0  0  0  0  0  0  0
    3.4060    6.5700  -11.7600 C   0  0  2  0  0  0  0  0  0  0  0  0
    2.6010    6.3500  -12.4610 H   0  0  0  0  0  0  0  0  0  0  0  0
    4.5830    7.2000  -12.5340 C   0  0  0  0  0  3  0  0  0  0  0  0
    4.3900    7.6850  -13.6440 O   0  0  0  0  0  0  0  0  0  0  0  0
    2.8330    7.5740  -10.6990 C   0  0  0  0  0  0  0  0  0  0  0  0
    1.7520    7.4410  -10.6510 H   0  0  0  0  0  0  0  0  0  0  0  0
    3.2710    7.3350   -9.7300 H   0  0  0  0  0  0  0  0  0  0  0  0
    3.1220    9.0400  -11.0060 C   0  0  0  0  0  0  0  0  0  0  0  0
    2.4190    9.6990  -11.9770 C   0  0  0  0  0  0  0  0  0  0  0  0
    1.6340    9.1740  -12.5200 H   0  0  0  0  0  0  0  0  0  0  0  0
    4.1580    9.7400  -10.3510 C   0  0  0  0  0  0  0  0  0  0  0  0
    4.7460    9.2230   -9.5930 H   0  0  0  0  0  0  0  0  0  0  0  0
    2.7000   11.0760  -12.2930 C   0  0  0  0  0  0  0  0  0  0  0  0
    2.1060   11.5870  -13.0510 H   0  0  0  0  0  0  0  0  0  0  0  0
    4.4620   11.1120  -10.6520 C   0  0  0  0  0  0  0  0  0  0  0  0
    5.2550   11.6380  -10.1200 H   0  0  0  0  0  0  0  0  0  0  0  0
    3.7150   11.7570  -11.6450 C   0  0  0  0  0  0  0  0  0  0  0  0
    3.9630   13.0750  -12.0290 O   0  0  0  0  0  0  0  0  0  0  0  0
    3.3260   13.3360  -12.7410 H   0  0  0  0  0  0  0  0  0  0  0  0
   10.9780    6.3050   -4.9480 N   0  0  0  0  0  2  0  0  0  0  0  0
   10.1880    5.9880   -5.5450 H   0  0  0  0  0  0  0  0  0  0  0  0
   10.7200    6.5580   -3.5270 C   0  0  2  0  0  0  0  0  0  0  0  0
   10.9690    7.6020   -3.3390 H   0  0  0  0  0  0  0  0  0  0  0  0
   11.6250    5.7190   -2.6400 C   0  0  0  0  0  3  0  0  0  0  0  0
   12.2670    6.2920   -1.7970 O   0  0  0  0  0  0  0  0  0  0  0  0
    9.2040    6.4100   -3.1540 C   0  0  0  0  0  0  0  0  0  0  0  0
    8.6640    7.2090   -3.6620 H   0  0  0  0  0  0  0  0  0  0  0  0
    8.8680    5.4460   -3.5360 H   0  0  0  0  0  0  0  0  0  0  0  0
    8.8060    6.4750   -1.6050 C   0  0  0  0  0  0  0  0  0  0  0  0
    9.0730    5.5270   -1.1380 H   0  0  0  0  0  0  0  0  0  0  0  0
    9.3690    7.2810   -1.1350 H   0  0  0  0  0  0  0  0  0  0  0  0
    7.2710    6.7340   -1.3710 C   0  0  0  0  0  0  0  0  0  0  0  0
    6.9860    6.4380   -0.3620 H   0  0  0  0  0  0  0  0  0  0  0  0
    6.6770    6.1740   -2.0940 H   0  0  0  0  0  0  0  0  0  0  0  0
    7.0740    8.1750   -1.5550 N   0  0  0  0  0  0  0  0  0  0  0  0
    7.9010    8.7810   -1.3810 H   0  0  0  0  0  0  0  0  0  0  0  0
    5.9530    8.7950   -1.9200 C   0  0  0  0  0  0  0  0  0  0  0  0
    4.8300    8.1290   -2.1550 N   0  0  0  0  0  4  0  0  0  0  0  0
    4.8090    7.0940   -2.0560 H   0  0  0  0  0  0  0  0  0  0  0  0
    3.9710    8.6420   -2.4390 H   0  0  0  0  0  0  0  0  0  0  0  0
    5.9750   10.1110   -2.0680 N   0  0  0  0  0  0  0  0  0  0  0  0
    6.8550   10.6390   -1.9000 H   0  0  0  0  0  0  0  0  0  0  0  0
    5.1120   10.6170   -2.3520 H   0  0  0  0  0  0  0  0  0  0  0  0
   11.6800   13.6970    2.1500 N   0  0  0  0  0  2  0  0  0  0  0  0
   11.0060   14.3750    1.7400 H   0  0  0  0  0  0  0  0  0  0  0  0
   12.3750   12.7460    1.2760 C   0  0  2  0  0  0  0  0  0  0  0  0
   12.5890   11.8420    1.8460 H   0  0  0  0  0  0  0  0  0  0  0  0
   13.6730   13.4000    0.7880 C   0  0  0  0  0  3  0  0  0  0  0  0
   13.6690   14.3550    0.0170 O   0  0  0  0  0  0  0  0  0  0  0  0
   11.5200   12.3200    0.0890 C   0  0  0  0  0  0  0  0  0  0  0  0
   11.3570   13.1990   -0.5350 H   0  0  0  0  0  0  0  0  0  0  0  0
   12.0810   11.5750   -0.4740 H   0  0  0  0  0  0  0  0  0  0  0  0
   10.1640   11.7270    0.4160 C   0  0  0  0  0  0  0  0  0  0  0  0
   10.0310   10.3500    0.7370 C   0  0  0  0  0  0  0  0  0  0  0  0
   10.9170    9.7150    0.7680 H   0  0  0  0  0  0  0  0  0  0  0  0
    9.0060   12.5450    0.3790 C   0  0  0  0  0  0  0  0  0  0  0  0
    9.1020   13.6000    0.1210 H   0  0  0  0  0  0  0  0  0  0  0  0
    8.7740    9.8000    1.0140 C   0  0  0  0  0  0  0  0  0  0  0  0
    8.6750    8.7420    1.2580 H   0  0  0  0  0  0  0  0  0  0  0  0
    7.7410   12.0170    0.6690 C   0  0  0  0  0  0  0  0  0  0  0  0
    6.8570   12.6550    0.6610 H   0  0  0  0  0  0  0  0  0  0  0  0
    7.6340   10.6360    0.9730 C   0  0  0  0  0  0  0  0  0  0  0  0
    6.3730   10.1120    1.2340 O   0  0  0  0  0  0  0  0  0  0  0  0
    6.4530    9.1450    1.4290 H   0  0  0  0  0  0  0  0  0  0  0  0
    6.8140   13.4770   -8.2220 H   0  0  0  0  0  0  0  0  0  0  0  0
   -8.7350    4.5970   -6.3320 H   0  0  0  0  0  0  0  0  0  0  0  0
  1  2  1  0
  1  3  1  0
  3  4  1  6
  3  5  1  0
  3  7  1  0
  5  6  2  0
  7  8  1  0
  7  9  1  0
  7 10  1  0
 10 11  2  0
 10 12  1  0
 12250  1  0
 13 14  1  0
 13 15  1  0
 15 16  1  6
 15 17  1  0
 15 19  1  0
 17 18  2  0
 17 24  1  0
 19 20  1  0
 19 21  1  0
 19 22  1  0
 22 23  1  0
 24 25  1  0
 24 26  1  0
 26 27  1  1
 26 28  1  0
 26 30  1  0
 28 29  2  0
 28 35  1  0
 30 31  1  0
 30 32  1  0
 30 33  1  0
 33 34  1  0
 35 36  1  0
 35 37  1  0
 37 38  1  6
 37 39  1  0
 37 41  1  0
 39 40  2  0
 41 42  1  0
 41 43  1  0
 41 44  1  0
 44 45  2  0
 44 47  1  0
 45 46  1  0
 45 49  1  0
 47 48  1  0
 47 51  2  0
 49 50  1  0
 49 53  2  0
 51 52  1  0
 51 53  1  0
 53 54  1  0
 55 56  1  0
 55 57  1  0
 57 58  1  6
 57 59  1  0
 57 61  1  0
 59 60  2  0
 61 62  1  0
 61 63  1  0
 61 67  1  0
 63 64  1  0
 63 65  1  0
 63 66  1  0
 67 68  1  0
 67 69  1  0
 67 70  1  0
 71 72  1  0
 71 73  1  0
 73 74  1  1
 73 75  1  0
 73 77  1  0
 75 76  2  0
 77 78  1  6
 77 79  1  0
 77 82  1  0
 79 80  1  0
 79 81  1  0
 79 86  1  0
 82 83  1  0
 82 84  1  0
 82 85  1  0
 86 87  1  0
 86 88  1  0
 86 89  1  0
 90 91  1  0
 90 92  1  0
 92 93  1  6
 92 94  1  0
 92 96  1  0
 94 95  2  0
 96 97  1  0
 96 98  1  0
 96 99  1  0
 99100  1  0
 99101  2  0
100103  2  0
101102  1  0
101105  1  0
103104  1  0
103105  1  0
105251  1  0
106107  1  0
106108  1  0
108109  1  1
108110  1  0
108112  1  0
110111  2  0
112113  1  0
112114  1  0
112118  1  0
114115  1  0
114116  1  0
114117  1  0
118119  1  0
118120  1  0
118121  1  0
122123  1  0
122124  1  0
124125  1  1
124126  1  0
124128  1  0
126127  2  0
126132  1  0
128129  1  0
128130  1  0
128131  1  0
132133  1  0
132134  1  0
134135  1  1
134136  1  0
134138  1  0
136137  2  0
136143  1  0
138139  1  0
138140  1  0
138141  1  0
141142  1  0
143144  1  0
143145  1  0
145146  1  1
145147  1  0
145149  1  0
147148  2  0
149150  1  0
149151  1  0
149152  1  0
152153  1  0
152154  1  0
152158  1  0
154155  1  0
154156  1  0
154157  1  0
158159  1  0
158160  1  0
158161  1  0
162163  1  0
162164  1  0
164165  1  6
164166  1  0
164168  1  0
166167  2  0
166184  1  0
168169  1  0
168170  1  0
168171  1  0
171172  1  0
171173  1  0
171174  1  0
174175  1  0
174176  1  0
174177  1  0
177178  1  0
177179  1  0
177180  1  0
180181  1  0
180182  1  0
180183  1  0
184185  1  0
184186  1  0
186187  1  6
186188  1  0
186190  1  0
188189  2  0
190191  1  0
190192  1  0
190193  1  0
193194  2  0
193196  1  0
194195  1  0
194198  1  0
196197  1  0
196200  2  0
198199  1  0
198202  2  0
200201  1  0
200202  1  0
202203  1  0
203204  1  0
205206  1  0
205207  1  0
207208  1  6
207209  1  0
207211  1  0
209210  2  0
211212  1  0
211213  1  0
211214  1  0
214215  1  0
214216  1  0
214217  1  0
217218  1  0
217219  1  0
217220  1  0
220221  1  0
220222  1  0
222223  2  0
222226  1  0
223224  1  0
223225  1  0
226227  1  0
226228  1  0
229230  1  0
229231  1  0
231232  1  1
231233  1  0
231235  1  0
233234  2  0
235236  1  0
235237  1  0
235238  1  0
238239  2  0
238241  1  0
239240  1  0
239243  1  0
241242  1  0
241245  2  0
243244  1  0
243247  2  0
245246  1  0
245247  1  0
247248  1  0
248249  1  0
M  RAD  8   1   2   5   2  13   2  39   2  55   2  59   2  71   2  75   2
M  RAD  8  90   2  94   2 106   2 110   2 122   2 147   2 162   2 188   2
M  CHG  2 180   1 223   1
M  RAD  4 205   2 209   2 229   2 233   2
M  END
$$$$

     RDKit          3D

251245  0  0  0  0  0  0  0  0999 V2000
    8.2390   15.7430  -10.2460 N   0  0  0  0  0  2  0  0  0  0  0  0
    8.4060   14.8450   -9.7480 H   0  0  0  0  0  0  0  0  0  0  0  0
    7.1270   16.5820   -9.8330 C   0  0  2  0  0  0  0  0  0  0  0  0
    6.5240   16.7530  -10.7240 H   0  0  0  0  0  0  0  0  0  0  0  0
    7.5010   17.9630   -9.3590 C   0  0  0  0  0  3  0  0  0  0  0  0
    8.3130   18.1090   -8.4540 O   0  0  0  0  0  0  0  0  0  0  0  0
    6.3630   15.8620   -8.7680 C   0  0  0  0  0  0  0  0  0  0  0  0
    7.0440   15.5910   -7.9610 H   0  0  0  0  0  0  0  0  0  0  0  0
    5.5850   16.5200   -8.3800 H   0  0  0  0  0  0  0  0  0  0  0  0
    5.7360   14.6350   -9.3040 C   0  0  0  0  0  0  0  0  0  0  0  0
    4.8520   14.7920  -10.1880 O   0  0  0  0  0  0  0  0  0  0  0  0
    6.1520   13.5130   -8.8840 O   0  0  0  0  0  0  0  0  0  0  0  0
    1.6580   16.8130  -11.9920 N   0  0  0  0  0  2  0  0  0  0  0  0
    2.3630   16.6600  -11.2430 H   0  0  0  0  0  0  0  0  0  0  0  0
    0.5750   15.8710  -12.1280 C   0  0  2  0  0  0  0  0  0  0  0  0
    0.1290   15.9910  -13.1150 H   0  0  0  0  0  0  0  0  0  0  0  0
   -0.5220   16.1130  -11.1130 C   0  0  0  0  0  0  0  0  0  0  0  0
   -0.2990   16.7340  -10.0760 O   0  0  0  0  0  0  0  0  0  0  0  0
    1.1300   14.4960  -11.9520 C   0  0  0  0  0  0  0  0  0  0  0  0
    0.3140   13.7740  -11.9180 H   0  0  0  0  0  0  0  0  0  0  0  0
    1.6970   14.4460  -11.0220 H   0  0  0  0  0  0  0  0  0  0  0  0
    1.9940   14.1960  -13.0610 O   0  0  0  0  0  0  0  0  0  0  0  0
    2.3660   13.2850  -12.9510 H   0  0  0  0  0  0  0  0  0  0  0  0
   -1.7070   15.5990  -11.3820 N   0  0  0  0  0  0  0  0  0  0  0  0
   -1.8300   15.0390  -12.2500 H   0  0  0  0  0  0  0  0  0  0  0  0
   -2.8500   15.7940  -10.4960 C   0  0  2  0  0  0  0  0  0  0  0  0
   -2.4940   15.6940   -9.4710 H   0  0  0  0  0  0  0  0  0  0  0  0
   -3.9360   14.7420  -10.7100 C   0  0  0  0  0  0  0  0  0  0  0  0
   -4.1170   14.2150  -11.8220 O   0  0  0  0  0  0  0  0  0  0  0  0
   -3.4310   17.1680  -10.7260 C   0  0  0  0  0  0  0  0  0  0  0  0
   -3.6970   17.2780  -11.7770 H   0  0  0  0  0  0  0  0  0  0  0  0
   -2.6920   17.9230  -10.4590 H   0  0  0  0  0  0  0  0  0  0  0  0
   -4.5930   17.3400   -9.9250 O   0  0  0  0  0  0  0  0  0  0  0  0
   -4.9690   18.2430  -10.0800 H   0  0  0  0  0  0  0  0  0  0  0  0
   -4.6520   14.4140   -9.6350 N   0  0  0  0  0  0  0  0  0  0  0  0
   -4.3590   14.7920   -8.7110 H   0  0  0  0  0  0  0  0  0  0  0  0
   -5.8320   13.5460   -9.6910 C   0  0  2  0  0  0  0  0  0  0  0  0
   -5.6450   12.7780  -10.4420 H   0  0  0  0  0  0  0  0  0  0  0  0
   -7.0770   14.3290  -10.1220 C   0  0  0  0  0  3  0  0  0  0  0  0
   -8.0250   13.7390  -10.5890 O   0  0  0  0  0  0  0  0  0  0  0  0
   -6.0610   12.8570   -8.3570 C   0  0  0  0  0  0  0  0  0  0  0  0
   -5.9730   13.6020   -7.5670 H   0  0  0  0  0  0  0  0  0  0  0  0
   -7.0700   12.4440   -8.3540 H   0  0  0  0  0  0  0  0  0  0  0  0
   -5.0730   11.7210   -8.0610 C   0  0  0  0  0  0  0  0  0  0  0  0
   -4.0720   11.8810   -7.1020 C   0  0  0  0  0  0  0  0  0  0  0  0
   -3.9860   12.8270   -6.5670 H   0  0  0  0  0  0  0  0  0  0  0  0
   -5.1740   10.4980   -8.7080 C   0  0  0  0  0  0  0  0  0  0  0  0
   -5.9560   10.3530   -9.4530 H   0  0  0  0  0  0  0  0  0  0  0  0
   -3.1820   10.8480   -6.8190 C   0  0  0  0  0  0  0  0  0  0  0  0
   -2.4060   10.9870   -6.0660 H   0  0  0  0  0  0  0  0  0  0  0  0
   -4.2920    9.4420   -8.4250 C   0  0  0  0  0  0  0  0  0  0  0  0
   -4.4060    8.4830   -8.9310 H   0  0  0  0  0  0  0  0  0  0  0  0
   -3.2860    9.6220   -7.5080 C   0  0  0  0  0  0  0  0  0  0  0  0
   -2.5720    8.8220   -7.3140 H   0  0  0  0  0  0  0  0  0  0  0  0
   -3.3140    5.0230  -13.0570 N   0  0  0  0  0  2  0  0  0  0  0  0
   -4.1400    5.6150  -12.8370 H   0  0  0  0  0  0  0  0  0  0  0  0
   -2.5170    4.4610  -11.9940 C   0  0  2  0  0  0  0  0  0  0  0  0
   -1.7250    3.8470  -12.4230 H   0  0  0  0  0  0  0  0  0  0  0  0
   -3.4380    3.6400  -11.1070 C   0  0  0  0  0  3  0  0  0  0  0  0
   -4.4710    4.1900  -10.6370 O   0  0  0  0  0  0  0  0  0  0  0  0
   -1.8540    5.5840  -11.1350 C   0  0  0  0  0  0  0  0  0  0  0  0
   -2.6490    6.2450  -10.7900 H   0  0  0  0  0  0  0  0  0  0  0  0
   -1.1450    4.9970   -9.9330 C   0  0  0  0  0  0  0  0  0  0  0  0
   -1.8650    4.4610   -9.3150 H   0  0  0  0  0  0  0  0  0  0  0  0
   -0.3700    4.3090  -10.2700 H   0  0  0  0  0  0  0  0  0  0  0  0
   -0.6920    5.8000   -9.3520 H   0  0  0  0  0  0  0  0  0  0  0  0
   -0.8790    6.3820  -11.9530 C   0  0  0  0  0  0  0  0  0  0  0  0
   -0.0980    5.7220  -12.3300 H   0  0  0  0  0  0  0  0  0  0  0  0
   -1.4020    6.8440  -12.7900 H   0  0  0  0  0  0  0  0  0  0  0  0
   -0.4320    7.1570  -11.3300 H   0  0  0  0  0  0  0  0  0  0  0  0
   -4.5210    2.0210   -7.7850 N   0  0  0  0  0  2  0  0  0  0  0  0
   -5.4600    2.1270   -8.2190 H   0  0  0  0  0  0  0  0  0  0  0  0
   -4.3760    2.2860   -6.3400 C   0  0  2  0  0  0  0  0  0  0  0  0
   -3.3700    1.9630   -6.0710 H   0  0  0  0  0  0  0  0  0  0  0  0
   -5.3740    1.4700   -5.5200 C   0  0  0  0  0  3  0  0  0  0  0  0
   -6.6090    1.7400   -5.5300 O   0  0  0  0  0  0  0  0  0  0  0  0
   -4.4620    3.8040   -5.9870 C   0  0  2  0  0  0  0  0  0  0  0  0
   -5.4400    4.1780   -6.2900 H   0  0  0  0  0  0  0  0  0  0  0  0
   -3.3750    4.5860   -6.7450 C   0  0  0  0  0  0  0  0  0  0  0  0
   -2.4260    4.4330   -6.2310 H   0  0  0  0  0  0  0  0  0  0  0  0
   -3.3090    4.1820   -7.7550 H   0  0  0  0  0  0  0  0  0  0  0  0
   -4.3050    4.0130   -4.4580 C   0  0  0  0  0  0  0  0  0  0  0  0
   -5.1000    3.4810   -3.9360 H   0  0  0  0  0  0  0  0  0  0  0  0
   -3.3370    3.6280   -4.1370 H   0  0  0  0  0  0  0  0  0  0  0  0
   -4.3670    5.0770   -4.2300 H   0  0  0  0  0  0  0  0  0  0  0  0
   -3.6210    6.0930   -6.8510 C   0  0  0  0  0  0  0  0  0  0  0  0
   -4.5590    6.2710   -7.3760 H   0  0  0  0  0  0  0  0  0  0  0  0
   -3.6760    6.5220   -5.8510 H   0  0  0  0  0  0  0  0  0  0  0  0
   -2.8020    6.5560   -7.4010 H   0  0  0  0  0  0  0  0  0  0  0  0
   -7.1030    4.9550  -11.2140 N   0  0  0  0  0  2  0  0  0  0  0  0
   -6.1220    4.6450  -11.0650 H   0  0  0  0  0  0  0  0  0  0  0  0
   -7.3690    6.3930  -11.2260 C   0  0  2  0  0  0  0  0  0  0  0  0
   -8.4260    6.5500  -11.4390 H   0  0  0  0  0  0  0  0  0  0  0  0
   -6.5510    7.1110  -12.3230 C   0  0  0  0  0  3  0  0  0  0  0  0
   -5.3670    6.8340  -12.4820 O   0  0  0  0  0  0  0  0  0  0  0  0
   -6.9990    6.9690   -9.8590 C   0  0  0  0  0  0  0  0  0  0  0  0
   -5.9460    6.7590   -9.6690 H   0  0  0  0  0  0  0  0  0  0  0  0
   -7.1550    8.0480   -9.8840 H   0  0  0  0  0  0  0  0  0  0  0  0
   -7.8100    6.3970   -8.7320 C   0  0  0  0  0  0  0  0  0  0  0  0
   -9.1120    6.7880   -8.4820 N   0  0  0  0  0  0  0  0  0  0  0  0
   -7.5200    5.4300   -7.8250 C   0  0  0  0  0  0  0  0  0  0  0  0
   -6.5730    4.9000   -7.7210 H   0  0  0  0  0  0  0  0  0  0  0  0
   -9.5840    6.0790   -7.4730 C   0  0  0  0  0  0  0  0  0  0  0  0
  -10.5840    6.1660   -7.0470 H   0  0  0  0  0  0  0  0  0  0  0  0
   -8.6430    5.2470   -7.0660 N   0  0  0  0  0  0  0  0  0  0  0  0
   -4.3430    9.9870  -13.8600 N   0  0  0  0  0  2  0  0  0  0  0  0
   -3.9430    9.2670  -14.4950 H   0  0  0  0  0  0  0  0  0  0  0  0
   -3.4660   11.0950  -13.4060 C   0  0  2  0  0  0  0  0  0  0  0  0
   -3.9980   11.6020  -12.6010 H   0  0  0  0  0  0  0  0  0  0  0  0
   -3.1980   12.0700  -14.5610 C   0  0  0  0  0  3  0  0  0  0  0  0
   -2.6940   11.6660  -15.6100 O   0  0  0  0  0  0  0  0  0  0  0  0
   -2.1230   10.5980  -12.8370 C   0  0  0  0  0  0  0  0  0  0  0  0
   -1.6160   10.0380  -13.6230 H   0  0  0  0  0  0  0  0  0  0  0  0
   -1.2160   11.7770  -12.4230 C   0  0  0  0  0  0  0  0  0  0  0  0
   -1.0140   12.4010  -13.2930 H   0  0  0  0  0  0  0  0  0  0  0  0
   -1.7190   12.3690  -11.6580 H   0  0  0  0  0  0  0  0  0  0  0  0
   -0.2780   11.3900  -12.0260 H   0  0  0  0  0  0  0  0  0  0  0  0
   -2.3600    9.6900  -11.6480 C   0  0  0  0  0  0  0  0  0  0  0  0
   -2.8940   10.2400  -10.8730 H   0  0  0  0  0  0  0  0  0  0  0  0
   -2.9540    8.8310  -11.9610 H   0  0  0  0  0  0  0  0  0  0  0  0
   -1.4020    9.3470  -11.2570 H   0  0  0  0  0  0  0  0  0  0  0  0
   10.6540   11.3050   -5.5760 N   0  0  0  0  0  2  0  0  0  0  0  0
   10.3920   12.2850   -5.8030 H   0  0  0  0  0  0  0  0  0  0  0  0
   10.0940   10.6720   -4.3490 C   0  0  2  0  0  0  0  0  0  0  0  0
   10.8680    9.9920   -3.9930 H   0  0  0  0  0  0  0  0  0  0  0  0
    8.8430    9.8410   -4.6350 C   0  0  0  0  0  0  0  0  0  0  0  0
    8.3760    9.1070   -3.7350 O   0  0  0  0  0  0  0  0  0  0  0  0
    9.8210   11.6790   -3.2540 C   0  0  0  0  0  0  0  0  0  0  0  0
   10.7510   12.1790   -2.9810 H   0  0  0  0  0  0  0  0  0  0  0  0
    9.1020   12.4160   -3.6110 H   0  0  0  0  0  0  0  0  0  0  0  0
    9.4140   11.1650   -2.3830 H   0  0  0  0  0  0  0  0  0  0  0  0
    8.3280    9.9240   -5.8760 N   0  0  0  0  0  0  0  0  0  0  0  0
    8.8050   10.5390   -6.5650 H   0  0  0  0  0  0  0  0  0  0  0  0
    7.1420    9.2010   -6.3060 C   0  0  2  0  0  0  0  0  0  0  0  0
    6.4000    9.3360   -5.5190 H   0  0  0  0  0  0  0  0  0  0  0  0
    7.4250    7.7530   -6.4980 C   0  0  0  0  0  0  0  0  0  0  0  0
    8.5700    7.2700   -6.4620 O   0  0  0  0  0  0  0  0  0  0  0  0
    6.6180    9.7450   -7.6390 C   0  0  0  0  0  0  0  0  0  0  0  0
    5.6190    9.3460   -7.8150 H   0  0  0  0  0  0  0  0  0  0  0  0
    7.2840    9.4210   -8.4390 H   0  0  0  0  0  0  0  0  0  0  0  0
    6.5530   11.1910   -7.6390 O   0  0  0  0  0  0  0  0  0  0  0  0
    6.2110   11.5050   -8.5140 H   0  0  0  0  0  0  0  0  0  0  0  0
    6.3550    7.0580   -6.8100 N   0  0  0  0  0  0  0  0  0  0  0  0
    5.4610    7.5640   -6.9720 H   0  0  0  0  0  0  0  0  0  0  0  0
    6.3700    5.6400   -6.9350 C   0  0  2  0  0  0  0  0  0  0  0  0
    7.1620    5.1570   -6.3640 H   0  0  0  0  0  0  0  0  0  0  0  0
    6.5790    5.3360   -8.4090 C   0  0  0  0  0  3  0  0  0  0  0  0
    6.0940    6.0730   -9.2600 O   0  0  0  0  0  0  0  0  0  0  0  0
    5.0220    5.1190   -6.4090 C   0  0  0  0  0  0  0  0  0  0  0  0
    4.2350    5.7010   -6.8870 H   0  0  0  0  0  0  0  0  0  0  0  0
    4.9330    4.0750   -6.7090 H   0  0  0  0  0  0  0  0  0  0  0  0
    4.7900    5.1880   -4.8740 C   0  0  0  0  0  0  0  0  0  0  0  0
    5.0100    6.2120   -4.5710 H   0  0  0  0  0  0  0  0  0  0  0  0
    3.3110    4.7880   -4.5700 C   0  0  0  0  0  0  0  0  0  0  0  0
    2.6380    5.4790   -5.0770 H   0  0  0  0  0  0  0  0  0  0  0  0
    3.1300    3.7740   -4.9260 H   0  0  0  0  0  0  0  0  0  0  0  0
    3.1370    4.8330   -3.4950 H   0  0  0  0  0  0  0  0  0  0  0  0
    5.7270    4.2640   -4.0560 C   0  0  0  0  0  0  0  0  0  0  0  0
    5.5710    3.2290   -4.3610 H   0  0  0  0  0  0  0  0  0  0  0  0
    6.7640    4.5460   -4.2400 H   0  0  0  0  0  0  0  0  0  0  0  0
    5.5030    4.3690   -2.9940 H   0  0  0  0  0  0  0  0  0  0  0  0
    5.3050    3.2970  -10.3550 N   0  0  0  0  0  2  0  0  0  0  0  0
    5.3190    3.2100   -9.3190 H   0  0  0  0  0  0  0  0  0  0  0  0
    4.1120    2.9140  -11.0930 C   0  0  2  0  0  0  0  0  0  0  0  0
    4.3770    2.2010  -11.8730 H   0  0  0  0  0  0  0  0  0  0  0  0
    3.5250    4.1710  -11.7290 C   0  0  0  0  0  0  0  0  0  0  0  0
    2.8290    4.0740  -12.7370 O   0  0  0  0  0  0  0  0  0  0  0  0
    3.0890    2.1810  -10.2000 C   0  0  0  0  0  0  0  0  0  0  0  0
    2.2390    1.8870  -10.8160 H   0  0  0  0  0  0  0  0  0  0  0  0
    3.5630    1.2900   -9.7890 H   0  0  0  0  0  0  0  0  0  0  0  0
    2.5850    3.0260   -9.0590 C   0  0  0  0  0  0  0  0  0  0  0  0
    3.2850    2.9380   -8.2280 H   0  0  0  0  0  0  0  0  0  0  0  0
    2.5440    4.0640   -9.3890 H   0  0  0  0  0  0  0  0  0  0  0  0
    1.2080    2.6210   -8.5730 C   0  0  0  0  0  0  0  0  0  0  0  0
    0.7530    3.4710   -8.0650 H   0  0  0  0  0  0  0  0  0  0  0  0
    0.6000    2.3470   -9.4350 H   0  0  0  0  0  0  0  0  0  0  0  0
    1.2480    1.4500   -7.6160 C   0  0  0  0  0  0  0  0  0  0  0  0
    2.1300    1.5540   -6.9850 H   0  0  0  0  0  0  0  0  0  0  0  0
    1.3270    0.5330   -8.2000 H   0  0  0  0  0  0  0  0  0  0  0  0
    0.0220    1.3380   -6.7120 N   0  0  0  0  0  4  0  0  0  0  0  0
   -0.0630    2.2000   -6.1370 H   0  0  0  0  0  0  0  0  0  0  0  0
   -0.8300    1.2250   -7.2980 H   0  0  0  0  0  0  0  0  0  0  0  0
    0.1270    0.5130   -6.0880 H   0  0  0  0  0  0  0  0  0  0  0  0
    3.8150    5.3320  -11.1570 N   0  0  0  0  0  0  0  0  0  0  0  0
    4.3440    5.3460  -10.2620 H   0  0  0  0  0  0  0  0  0  0  0  0
    3.4060    6.5700  -11.7600 C   0  0  2  0  0  0  0  0  0  0  0  0
    2.6010    6.3500  -12.4610 H   0  0  0  0  0  0  0  0  0  0  0  0
    4.5830    7.2000  -12.5340 C   0  0  0  0  0  3  0  0  0  0  0  0
    4.3900    7.6850  -13.6440 O   0  0  0  0  0  0  0  0  0  0  0  0
    2.8330    7.5740  -10.6990 C   0  0  0  0  0  0  0  0  0  0  0  0
    1.7520    7.4410  -10.6510 H   0  0  0  0  0  0  0  0  0  0  0  0
    3.2710    7.3350   -9.7300 H   0  0  0  0  0  0  0  0  0  0  0  0
    3.1220    9.0400  -11.0060 C   0  0  0  0  0  0  0  0  0  0  0  0
    2.4190    9.6990  -11.9770 C   0  0  0  0  0  0  0  0  0  0  0  0
    1.6340    9.1740  -12.5200 H   0  0  0  0  0  0  0  0  0  0  0  0
    4.1580    9.7400  -10.3510 C   0  0  0  0  0  0  0  0  0  0  0  0
    4.7460    9.2230   -9.5930 H   0  0  0  0  0  0  0  0  0  0  0  0
    2.7000   11.0760  -12.2930 C   0  0  0  0  0  0  0  0  0  0  0  0
    2.1060   11.5870  -13.0510 H   0  0  0  0  0  0  0  0  0  0  0  0
    4.4620   11.1120  -10.6520 C   0  0  0  0  0  0  0  0  0  0  0  0
    5.2550   11.6380  -10.1200 H   0  0  0  0  0  0  0  0  0  0  0  0
    3.7150   11.7570  -11.6450 C   0  0  0  0  0  0  0  0  0  0  0  0
    3.9630   13.0750  -12.0290 O   0  0  0  0  0  0  0  0  0  0  0  0
    3.3260   13.3360  -12.7410 H   0  0  0  0  0  0  0  0  0  0  0  0
   10.9780    6.3050   -4.9480 N   0  0  0  0  0  2  0  0  0  0  0  0
   10.1880    5.9880   -5.5450 H   0  0  0  0  0  0  0  0  0  0  0  0
   10.7200    6.5580   -3.5270 C   0  0  2  0  0  0  0  0  0  0  0  0
   10.9690    7.6020   -3.3390 H   0  0  0  0  0  0  0  0  0  0  0  0
   11.6250    5.7190   -2.6400 C   0  0  0  0  0  3  0  0  0  0  0  0
   12.2670    6.2920   -1.7970 O   0  0  0  0  0  0  0  0  0  0  0  0
    9.2040    6.4100   -3.1540 C   0  0  0  0  0  0  0  0  0  0  0  0
    8.6640    7.2090   -3.6620 H   0  0  0  0  0  0  0  0  0  0  0  0
    8.8680    5.4460   -3.5360 H   0  0  0  0  0  0  0  0  0  0  0  0
    8.8060    6.4750   -1.6050 C   0  0  0  0  0  0  0  0  0  0  0  0
    9.0730    5.5270   -1.1380 H   0  0  0  0  0  0  0  0  0  0  0  0
    9.3690    7.2810   -1.1350 H   0  0  0  0  0  0  0  0  0  0  0  0
    7.2710    6.7340   -1.3710 C   0  0  0  0  0  0  0  0  0  0  0  0
    6.9860    6.4380   -0.3620 H   0  0  0  0  0  0  0  0  0  0  0  0
    6.6770    6.1740   -2.0940 H   0  0  0  0  0  0  0  0  0  0  0  0
    7.0740    8.1750   -1.5550 N   0  0  0  0  0  0  0  0  0  0  0  0
    7.9010    8.7810   -1.3810 H   0  0  0  0  0  0  0  0  0  0  0  0
    5.9530    8.7950   -1.9200 C   0  0  0  0  0  0  0  0  0  0  0  0
    4.8300    8.1290   -2.1550 N   0  0  0  0  0  4  0  0  0  0  0  0
    4.8090    7.0940   -2.0560 H   0  0  0  0  0  0  0  0  0  0  0  0
    3.9710    8.6420   -2.4390 H   0  0  0  0  0  0  0  0  0  0  0  0
    5.9750   10.1110   -2.0680 N   0  0  0  0  0  0  0  0  0  0  0  0
    6.8550   10.6390   -1.9000 H   0  0  0  0  0  0  0  0  0  0  0  0
    5.1120   10.6170   -2.3520 H   0  0  0  0  0  0  0  0  0  0  0  0
   11.6800   13.6970    2.1500 N   0  0  0  0  0  2  0  0  0  0  0  0
   11.0060   14.3750    1.7400 H   0  0  0  0  0  0  0  0  0  0  0  0
   12.3750   12.7460    1.2760 C   0  0  2  0  0  0  0  0  0  0  0  0
   12.5890   11.8420    1.8460 H   0  0  0  0  0  0  0  0  0  0  0  0
   13.6730   13.4000    0.7880 C   0  0  0  0  0  3  0  0  0  0  0  0
   13.6690   14.3550    0.0170 O   0  0  0  0  0  0  0  0  0  0  0  0
   11.5200   12.3200    0.0890 C   0  0  0  0  0  0  0  0  0  0  0  0
   11.3570   13.1990   -0.5350 H   0  0  0  0  0  0  0  0  0  0  0  0
   12.0810   11.5750   -0.4740 H   0  0  0  0  0  0  0  0  0  0  0  0
   10.1640   11.7270    0.4160 C   0  0  0  0  0  0  0  0  0  0  0  0
   10.0310   10.3500    0.7370 C   0  0  0  0  0  0  0  0  0  0  0  0
   10.9170    9.7150    0.7680 H   0  0  0  0  0  0  0  0  0  0  0  0
    9.0060   12.5450    0.3790 C   0  0  0  0  0  0  0  0  0  0  0  0
    9.1020   13.6000    0.1210 H   0  0  0  0  0  0  0  0  0  0  0  0
    8.7740    9.8000    1.0140 C   0  0  0  0  0  0  0  0  0  0  0  0
    8.6750    8.7420    1.2580 H   0  0  0  0  0  0  0  0  0  0  0  0
    7.7410   12.0170    0.6690 C   0  0  0  0  0  0  0  0  0  0  0  0
    6.8570   12.6550    0.6610 H   0  0  0  0  0  0  0  0  0  0  0  0
    7.6340   10.6360    0.9730 C   0  0  0  0  0  0  0  0  0  0  0  0
    6.3730   10.1120    1.2340 O   0  0  0  0  0  0  0  0  0  0  0  0
    6.4530    9.1450    1.4290 H   0  0  0  0  0  0  0  0  0  0  0  0
    6.8140   13.4770   -8.2220 H   0  0  0  0  0  0  0  0  0  0  0  0
   -8.7350    4.5970   -6.3320 H   0  0  0  0  0  0  0  0  0  0  0  0
  1  2  1  0
  1  3  1  0
  3  4  1  6
  3  5  1  0
  3  7  1  0
  5  6  2  0
  7  8  1  0
  7  9  1  0
  7 10  1  0
 10 11  2  0
 10 12  1  0
 12250  1  0
 13 14  1  0
 13 15  1  0
 15 16  1  6
 15 17  1  0
 15 19  1  0
 17 18  2  0
 17 24  1  0
 19 20  1  0
 19 21  1  0
 19 22  1  0
 22 23  1  0
 24 25  1  0
 24 26  1  0
 26 27  1  1
 26 28  1  0
 26 30  1  0
 28 29  2  0
 28 35  1  0
 30 31  1  0
 30 32  1  0
 30 33  1  0
 33 34  1  0
 35 36  1  0
 35 37  1  0
 37 38  1  6
 37 39  1  0
 37 41  1  0
 39 40  2  0
 41 42  1  0
 41 43  1  0
 41 44  1  0
 44 45  2  0
 44 47  1  0
 45 46  1  0
 45 49  1  0
 47 48  1  0
 47 51  2  0
 49 50  1  0
 49 53  2  0
 51 52  1  0
 51 53  1  0
 53 54  1  0
 55 56  1  0
 55 57  1  0
 57 58  1  6
 57 59  1  0
 57 61  1  0
 59 60  2  0
 61 62  1  0
 61 63  1  0
 61 67  1  0
 63 64  1  0
 63 65  1  0
 63 66  1  0
 67 68  1  0
 67 69  1  0
 67 70  1  0
 71 72  1  0
 71 73  1  0
 73 74  1  1
 73 75  1  0
 73 77  1  0
 75 76  2  0
 77 78  1  6
 77 79  1  0
 77 82  1  0
 79 80  1  0
 79 81  1  0
 79 86  1  0
 82 83  1  0
 82 84  1  0
 82 85  1  0
 86 87  1  0
 86 88  1  0
 86 89  1  0
 90 91  1  0
 90 92  1  0
 92 93  1  6
 92 94  1  0
 92 96  1  0
 94 95  2  0
 96 97  1  0
 96 98  1  0
 96 99  1  0
 99100  1  0
 99101  2  0
100103  2  0
101102  1  0
101105  1  0
103104  1  0
103105  1  0
105251  1  0
106107  1  0
106108  1  0
108109  1  1
108110  1  0
108112  1  0
110111  2  0
112113  1  0
112114  1  0
112118  1  0
114115  1  0
114116  1  0
114117  1  0
118119  1  0
118120  1  0
118121  1  0
122123  1  0
122124  1  0
124125  1  1
124126  1  0
124128  1  0
126127  2  0
126132  1  0
128129  1  0
128130  1  0
128131  1  0
132133  1  0
132134  1  0
134135  1  1
134136  1  0
134138  1  0
136137  2  0
136143  1  0
138139  1  0
138140  1  0
138141  1  0
141142  1  0
143144  1  0
143145  1  0
145146  1  1
145147  1  0
145149  1  0
147148  2  0
149150  1  0
149151  1  0
149152  1  0
152153  1  0
152154  1  0
152158  1  0
154155  1  0
154156  1  0
154157  1  0
158159  1  0
158160  1  0
158161  1  0
162163  1  0
162164  1  0
164165  1  6
164166  1  0
164168  1  0
166167  2  0
166184  1  0
168169  1  0
168170  1  0
168171  1  0
171172  1  0
171173  1  0
171174  1  0
174175  1  0
174176  1  0
174177  1  0
177178  1  0
177179  1  0
177180  1  0
180181  1  0
180182  1  0
180183  1  0
184185  1  0
184186  1  0
186187  1  6
186188  1  0
186190  1  0
188189  2  0
190191  1  0
190192  1  0
190193  1  0
193194  2  0
193196  1  0
194195  1  0
194198  1  0
196197  1  0
196200  2  0
198199  1  0
198202  2  0
200201  1  0
200202  1  0
202203  1  0
203204  1  0
205206  1  0
205207  1  0
207208  1  6
207209  1  0
207211  1  0
209210  2  0
211212  1  0
211213  1  0
211214  1  0
214215  1  0
214216  1  0
214217  1  0
217218  1  0
217219  1  0
217220  1  0
220221  1  0
220222  1  0
222223  2  0
222226  1  0
223224  1  0
223225  1  0
226227  1  0
226228  1  0
229230  1  0
229231  1  0
231232  1  1
231233  1  0
231235  1  0
233234  2  0
235236  1  0
235237  1  0
235238  1  0
238239  2  0
238241  1  0
239240  1  0
239243  1  0
241242  1  0
241245  2  0
243244  1  0
243247  2  0
245246  1  0
245247  1  0
247248  1  0
248249  1  0
M  RAD  8   1   2   5   2  13   2  39   2  55   2  59   2  71   2  75   2
M  RAD  8  90   2  94   2 106   2 110   2 122   2 147   2 162   2 188   2
M  CHG  2 180   1 223   1
M  RAD  4 205   2 209   2 229   2 233   2
M  END
$$$$

     RDKit          3D

251245  0  0  0  0  0  0  0  0999 V2000
    8.2390   15.7430  -10.2460 N   0  0  0  0  0  2  0  0  0  0  0  0
    8.4060   14.8450   -9.7480 H   0  0  0  0  0  0  0  0  0  0  0  0
    7.1270   16.5820   -9.8330 C   0  0  2  0  0  0  0  0  0  0  0  0
    6.5240   16.7530  -10.7240 H   0  0  0  0  0  0  0  0  0  0  0  0
    7.5010   17.9630   -9.3590 C   0  0  0  0  0  3  0  0  0  0  0  0
    8.3130   18.1090   -8.4540 O   0  0  0  0  0  0  0  0  0  0  0  0
    6.3630   15.8620   -8.7680 C   0  0  0  0  0  0  0  0  0  0  0  0
    7.0440   15.5910   -7.9610 H   0  0  0  0  0  0  0  0  0  0  0  0
    5.5850   16.5200   -8.3800 H   0  0  0  0  0  0  0  0  0  0  0  0
    5.7360   14.6350   -9.3040 C   0  0  0  0  0  0  0  0  0  0  0  0
    4.8520   14.7920  -10.1880 O   0  0  0  0  0  0  0  0  0  0  0  0
    6.1520   13.5130   -8.8840 O   0  0  0  0  0  0  0  0  0  0  0  0
    1.6580   16.8130  -11.9920 N   0  0  0  0  0  2  0  0  0  0  0  0
    2.3630   16.6600  -11.2430 H   0  0  0  0  0  0  0  0  0  0  0  0
    0.5750   15.8710  -12.1280 C   0  0  2  0  0  0  0  0  0  0  0  0
    0.1290   15.9910  -13.1150 H   0  0  0  0  0  0  0  0  0  0  0  0
   -0.5220   16.1130  -11.1130 C   0  0  0  0  0  0  0  0  0  0  0  0
   -0.2990   16.7340  -10.0760 O   0  0  0  0  0  0  0  0  0  0  0  0
    1.1300   14.4960  -11.9520 C   0  0  0  0  0  0  0  0  0  0  0  0
    0.3140   13.7740  -11.9180 H   0  0  0  0  0  0  0  0  0  0  0  0
    1.6970   14.4460  -11.0220 H   0  0  0  0  0  0  0  0  0  0  0  0
    1.9940   14.1960  -13.0610 O   0  0  0  0  0  0  0  0  0  0  0  0
    2.3660   13.2850  -12.9510 H   0  0  0  0  0  0  0  0  0  0  0  0
   -1.7070   15.5990  -11.3820 N   0  0  0  0  0  0  0  0  0  0  0  0
   -1.8300   15.0390  -12.2500 H   0  0  0  0  0  0  0  0  0  0  0  0
   -2.8500   15.7940  -10.4960 C   0  0  2  0  0  0  0  0  0  0  0  0
   -2.4940   15.6940   -9.4710 H   0  0  0  0  0  0  0  0  0  0  0  0
   -3.9360   14.7420  -10.7100 C   0  0  0  0  0  0  0  0  0  0  0  0
   -4.1170   14.2150  -11.8220 O   0  0  0  0  0  0  0  0  0  0  0  0
   -3.4310   17.1680  -10.7260 C   0  0  0  0  0  0  0  0  0  0  0  0
   -3.6970   17.2780  -11.7770 H   0  0  0  0  0  0  0  0  0  0  0  0
   -2.6920   17.9230  -10.4590 H   0  0  0  0  0  0  0  0  0  0  0  0
   -4.5930   17.3400   -9.9250 O   0  0  0  0  0  0  0  0  0  0  0  0
   -4.9690   18.2430  -10.0800 H   0  0  0  0  0  0  0  0  0  0  0  0
   -4.6520   14.4140   -9.6350 N   0  0  0  0  0  0  0  0  0  0  0  0
   -4.3590   14.7920   -8.7110 H   0  0  0  0  0  0  0  0  0  0  0  0
   -5.8320   13.5460   -9.6910 C   0  0  2  0  0  0  0  0  0  0  0  0
   -5.6450   12.7780  -10.4420 H   0  0  0  0  0  0  0  0  0  0  0  0
   -7.0770   14.3290  -10.1220 C   0  0  0  0  0  3  0  0  0  0  0  0
   -8.0250   13.7390  -10.5890 O   0  0  0  0  0  0  0  0  0  0  0  0
   -6.0610   12.8570   -8.3570 C   0  0  0  0  0  0  0  0  0  0  0  0
   -5.9730   13.6020   -7.5670 H   0  0  0  0  0  0  0  0  0  0  0  0
   -7.0700   12.4440   -8.3540 H   0  0  0  0  0  0  0  0  0  0  0  0
   -5.0730   11.7210   -8.0610 C   0  0  0  0  0  0  0  0  0  0  0  0
   -4.0720   11.8810   -7.1020 C   0  0  0  0  0  0  0  0  0  0  0  0
   -3.9860   12.8270   -6.5670 H   0  0  0  0  0  0  0  0  0  0  0  0
   -5.1740   10.4980   -8.7080 C   0  0  0  0  0  0  0  0  0  0  0  0
   -5.9560   10.3530   -9.4530 H   0  0  0  0  0  0  0  0  0  0  0  0
   -3.1820   10.8480   -6.8190 C   0  0  0  0  0  0  0  0  0  0  0  0
   -2.4060   10.9870   -6.0660 H   0  0  0  0  0  0  0  0  0  0  0  0
   -4.2920    9.4420   -8.4250 C   0  0  0  0  0  0  0  0  0  0  0  0
   -4.4060    8.4830   -8.9310 H   0  0  0  0  0  0  0  0  0  0  0  0
   -3.2860    9.6220   -7.5080 C   0  0  0  0  0  0  0  0  0  0  0  0
   -2.5720    8.8220   -7.3140 H   0  0  0  0  0  0  0  0  0  0  0  0
   -3.3140    5.0230  -13.0570 N   0  0  0  0  0  2  0  0  0  0  0  0
   -4.1400    5.6150  -12.8370 H   0  0  0  0  0  0  0  0  0  0  0  0
   -2.5170    4.4610  -11.9940 C   0  0  2  0  0  0  0  0  0  0  0  0
   -1.7250    3.8470  -12.4230 H   0  0  0  0  0  0  0  0  0  0  0  0
   -3.4380    3.6400  -11.1070 C   0  0  0  0  0  3  0  0  0  0  0  0
   -4.4710    4.1900  -10.6370 O   0  0  0  0  0  0  0  0  0  0  0  0
   -1.8540    5.5840  -11.1350 C   0  0  0  0  0  0  0  0  0  0  0  0
   -2.6490    6.2450  -10.7900 H   0  0  0  0  0  0  0  0  0  0  0  0
   -1.1450    4.9970   -9.9330 C   0  0  0  0  0  0  0  0  0  0  0  0
   -1.8650    4.4610   -9.3150 H   0  0  0  0  0  0  0  0  0  0  0  0
   -0.3700    4.3090  -10.2700 H   0  0  0  0  0  0  0  0  0  0  0  0
   -0.6920    5.8000   -9.3520 H   0  0  0  0  0  0  0  0  0  0  0  0
   -0.8790    6.3820  -11.9530 C   0  0  0  0  0  0  0  0  0  0  0  0
   -0.0980    5.7220  -12.3300 H   0  0  0  0  0  0  0  0  0  0  0  0
   -1.4020    6.8440  -12.7900 H   0  0  0  0  0  0  0  0  0  0  0  0
   -0.4320    7.1570  -11.3300 H   0  0  0  0  0  0  0  0  0  0  0  0
   -4.5210    2.0210   -7.7850 N   0  0  0  0  0  2  0  0  0  0  0  0
   -5.4600    2.1270   -8.2190 H   0  0  0  0  0  0  0  0  0  0  0  0
   -4.3760    2.2860   -6.3400 C   0  0  2  0  0  0  0  0  0  0  0  0
   -3.3700    1.9630   -6.0710 H   0  0  0  0  0  0  0  0  0  0  0  0
   -5.3740    1.4700   -5.5200 C   0  0  0  0  0  3  0  0  0  0  0  0
   -6.6090    1.7400   -5.5300 O   0  0  0  0  0  0  0  0  0  0  0  0
   -4.4620    3.8040   -5.9870 C   0  0  2  0  0  0  0  0  0  0  0  0
   -5.4400    4.1780   -6.2900 H   0  0  0  0  0  0  0  0  0  0  0  0
   -3.3750    4.5860   -6.7450 C   0  0  0  0  0  0  0  0  0  0  0  0
   -2.4260    4.4330   -6.2310 H   0  0  0  0  0  0  0  0  0  0  0  0
   -3.3090    4.1820   -7.7550 H   0  0  0  0  0  0  0  0  0  0  0  0
   -4.3050    4.0130   -4.4580 C   0  0  0  0  0  0  0  0  0  0  0  0
   -5.1000    3.4810   -3.9360 H   0  0  0  0  0  0  0  0  0  0  0  0
   -3.3370    3.6280   -4.1370 H   0  0  0  0  0  0  0  0  0  0  0  0
   -4.3670    5.0770   -4.2300 H   0  0  0  0  0  0  0  0  0  0  0  0
   -3.6210    6.0930   -6.8510 C   0  0  0  0  0  0  0  0  0  0  0  0
   -4.5590    6.2710   -7.3760 H   0  0  0  0  0  0  0  0  0  0  0  0
   -3.6760    6.5220   -5.8510 H   0  0  0  0  0  0  0  0  0  0  0  0
   -2.8020    6.5560   -7.4010 H   0  0  0  0  0  0  0  0  0  0  0  0
   -7.1030    4.9550  -11.2140 N   0  0  0  0  0  2  0  0  0  0  0  0
   -6.1220    4.6450  -11.0650 H   0  0  0  0  0  0  0  0  0  0  0  0
   -7.3690    6.3930  -11.2260 C   0  0  2  0  0  0  0  0  0  0  0  0
   -8.4260    6.5500  -11.4390 H   0  0  0  0  0  0  0  0  0  0  0  0
   -6.5510    7.1110  -12.3230 C   0  0  0  0  0  3  0  0  0  0  0  0
   -5.3670    6.8340  -12.4820 O   0  0  0  0  0  0  0  0  0  0  0  0
   -6.9990    6.9690   -9.8590 C   0  0  0  0  0  0  0  0  0  0  0  0
   -5.9460    6.7590   -9.6690 H   0  0  0  0  0  0  0  0  0  0  0  0
   -7.1550    8.0480   -9.8840 H   0  0  0  0  0  0  0  0  0  0  0  0
   -7.8100    6.3970   -8.7320 C   0  0  0  0  0  0  0  0  0  0  0  0
   -9.1120    6.7880   -8.4820 N   0  0  0  0  0  0  0  0  0  0  0  0
   -7.5200    5.4300   -7.8250 C   0  0  0  0  0  0  0  0  0  0  0  0
   -6.5730    4.9000   -7.7210 H   0  0  0  0  0  0  0  0  0  0  0  0
   -9.5840    6.0790   -7.4730 C   0  0  0  0  0  0  0  0  0  0  0  0
  -10.5840    6.1660   -7.0470 H   0  0  0  0  0  0  0  0  0  0  0  0
   -8.6430    5.2470   -7.0660 N   0  0  0  0  0  0  0  0  0  0  0  0
   -4.3430    9.9870  -13.8600 N   0  0  0  0  0  2  0  0  0  0  0  0
   -3.9430    9.2670  -14.4950 H   0  0  0  0  0  0  0  0  0  0  0  0
   -3.4660   11.0950  -13.4060 C   0  0  2  0  0  0  0  0  0  0  0  0
   -3.9980   11.6020  -12.6010 H   0  0  0  0  0  0  0  0  0  0  0  0
   -3.1980   12.0700  -14.5610 C   0  0  0  0  0  3  0  0  0  0  0  0
   -2.6940   11.6660  -15.6100 O   0  0  0  0  0  0  0  0  0  0  0  0
   -2.1230   10.5980  -12.8370 C   0  0  0  0  0  0  0  0  0  0  0  0
   -1.6160   10.0380  -13.6230 H   0  0  0  0  0  0  0  0  0  0  0  0
   -1.2160   11.7770  -12.4230 C   0  0  0  0  0  0  0  0  0  0  0  0
   -1.0140   12.4010  -13.2930 H   0  0  0  0  0  0  0  0  0  0  0  0
   -1.7190   12.3690  -11.6580 H   0  0  0  0  0  0  0  0  0  0  0  0
   -0.2780   11.3900  -12.0260 H   0  0  0  0  0  0  0  0  0  0  0  0
   -2.3600    9.6900  -11.6480 C   0  0  0  0  0  0  0  0  0  0  0  0
   -2.8940   10.2400  -10.8730 H   0  0  0  0  0  0  0  0  0  0  0  0
   -2.9540    8.8310  -11.9610 H   0  0  0  0  0  0  0  0  0  0  0  0
   -1.4020    9.3470  -11.2570 H   0  0  0  0  0  0  0  0  0  0  0  0
   10.6540   11.3050   -5.5760 N   0  0  0  0  0  2  0  0  0  0  0  0
   10.3920   12.2850   -5.8030 H   0  0  0  0  0  0  0  0  0  0  0  0
   10.0940   10.6720   -4.3490 C   0  0  2  0  0  0  0  0  0  0  0  0
   10.8680    9.9920   -3.9930 H   0  0  0  0  0  0  0  0  0  0  0  0
    8.8430    9.8410   -4.6350 C   0  0  0  0  0  0  0  0  0  0  0  0
    8.3760    9.1070   -3.7350 O   0  0  0  0  0  0  0  0  0  0  0  0
    9.8210   11.6790   -3.2540 C   0  0  0  0  0  0  0  0  0  0  0  0
   10.7510   12.1790   -2.9810 H   0  0  0  0  0  0  0  0  0  0  0  0
    9.1020   12.4160   -3.6110 H   0  0  0  0  0  0  0  0  0  0  0  0
    9.4140   11.1650   -2.3830 H   0  0  0  0  0  0  0  0  0  0  0  0
    8.3280    9.9240   -5.8760 N   0  0  0  0  0  0  0  0  0  0  0  0
    8.8050   10.5390   -6.5650 H   0  0  0  0  0  0  0  0  0  0  0  0
    7.1420    9.2010   -6.3060 C   0  0  2  0  0  0  0  0  0  0  0  0
    6.4000    9.3360   -5.5190 H   0  0  0  0  0  0  0  0  0  0  0  0
    7.4250    7.7530   -6.4980 C   0  0  0  0  0  0  0  0  0  0  0  0
    8.5700    7.2700   -6.4620 O   0  0  0  0  0  0  0  0  0  0  0  0
    6.6180    9.7450   -7.6390 C   0  0  0  0  0  0  0  0  0  0  0  0
    5.6190    9.3460   -7.8150 H   0  0  0  0  0  0  0  0  0  0  0  0
    7.2840    9.4210   -8.4390 H   0  0  0  0  0  0  0  0  0  0  0  0
    6.5530   11.1910   -7.6390 O   0  0  0  0  0  0  0  0  0  0  0  0
    6.2110   11.5050   -8.5140 H   0  0  0  0  0  0  0  0  0  0  0  0
    6.3550    7.0580   -6.8100 N   0  0  0  0  0  0  0  0  0  0  0  0
    5.4610    7.5640   -6.9720 H   0  0  0  0  0  0  0  0  0  0  0  0
    6.3700    5.6400   -6.9350 C   0  0  2  0  0  0  0  0  0  0  0  0
    7.1620    5.1570   -6.3640 H   0  0  0  0  0  0  0  0  0  0  0  0
    6.5790    5.3360   -8.4090 C   0  0  0  0  0  3  0  0  0  0  0  0
    6.0940    6.0730   -9.2600 O   0  0  0  0  0  0  0  0  0  0  0  0
    5.0220    5.1190   -6.4090 C   0  0  0  0  0  0  0  0  0  0  0  0
    4.2350    5.7010   -6.8870 H   0  0  0  0  0  0  0  0  0  0  0  0
    4.9330    4.0750   -6.7090 H   0  0  0  0  0  0  0  0  0  0  0  0
    4.7900    5.1880   -4.8740 C   0  0  0  0  0  0  0  0  0  0  0  0
    5.0100    6.2120   -4.5710 H   0  0  0  0  0  0  0  0  0  0  0  0
    3.3110    4.7880   -4.5700 C   0  0  0  0  0  0  0  0  0  0  0  0
    2.6380    5.4790   -5.0770 H   0  0  0  0  0  0  0  0  0  0  0  0
    3.1300    3.7740   -4.9260 H   0  0  0  0  0  0  0  0  0  0  0  0
    3.1370    4.8330   -3.4950 H   0  0  0  0  0  0  0  0  0  0  0  0
    5.7270    4.2640   -4.0560 C   0  0  0  0  0  0  0  0  0  0  0  0
    5.5710    3.2290   -4.3610 H   0  0  0  0  0  0  0  0  0  0  0  0
    6.7640    4.5460   -4.2400 H   0  0  0  0  0  0  0  0  0  0  0  0
    5.5030    4.3690   -2.9940 H   0  0  0  0  0  0  0  0  0  0  0  0
    5.3050    3.2970  -10.3550 N   0  0  0  0  0  2  0  0  0  0  0  0
    5.3190    3.2100   -9.3190 H   0  0  0  0  0  0  0  0  0  0  0  0
    4.1120    2.9140  -11.0930 C   0  0  2  0  0  0  0  0  0  0  0  0
    4.3770    2.2010  -11.8730 H   0  0  0  0  0  0  0  0  0  0  0  0
    3.5250    4.1710  -11.7290 C   0  0  0  0  0  0  0  0  0  0  0  0
    2.8290    4.0740  -12.7370 O   0  0  0  0  0  0  0  0  0  0  0  0
    3.0890    2.1810  -10.2000 C   0  0  0  0  0  0  0  0  0  0  0  0
    2.2390    1.8870  -10.8160 H   0  0  0  0  0  0  0  0  0  0  0  0
    3.5630    1.2900   -9.7890 H   0  0  0  0  0  0  0  0  0  0  0  0
    2.5850    3.0260   -9.0590 C   0  0  0  0  0  0  0  0  0  0  0  0
    3.2850    2.9380   -8.2280 H   0  0  0  0  0  0  0  0  0  0  0  0
    2.5440    4.0640   -9.3890 H   0  0  0  0  0  0  0  0  0  0  0  0
    1.2080    2.6210   -8.5730 C   0  0  0  0  0  0  0  0  0  0  0  0
    0.7530    3.4710   -8.0650 H   0  0  0  0  0  0  0  0  0  0  0  0
    0.6000    2.3470   -9.4350 H   0  0  0  0  0  0  0  0  0  0  0  0
    1.2480    1.4500   -7.6160 C   0  0  0  0  0  0  0  0  0  0  0  0
    2.1300    1.5540   -6.9850 H   0  0  0  0  0  0  0  0  0  0  0  0
    1.3270    0.5330   -8.2000 H   0  0  0  0  0  0  0  0  0  0  0  0
    0.0220    1.3380   -6.7120 N   0  0  0  0  0  4  0  0  0  0  0  0
   -0.0630    2.2000   -6.1370 H   0  0  0  0  0  0  0  0  0  0  0  0
   -0.8300    1.2250   -7.2980 H   0  0  0  0  0  0  0  0  0  0  0  0
    0.1270    0.5130   -6.0880 H   0  0  0  0  0  0  0  0  0  0  0  0
    3.8150    5.3320  -11.1570 N   0  0  0  0  0  0  0  0  0  0  0  0
    4.3440    5.3460  -10.2620 H   0  0  0  0  0  0  0  0  0  0  0  0
    3.4060    6.5700  -11.7600 C   0  0  2  0  0  0  0  0  0  0  0  0
    2.6010    6.3500  -12.4610 H   0  0  0  0  0  0  0  0  0  0  0  0
    4.5830    7.2000  -12.5340 C   0  0  0  0  0  3  0  0  0  0  0  0
    4.3900    7.6850  -13.6440 O   0  0  0  0  0  0  0  0  0  0  0  0
    2.8330    7.5740  -10.6990 C   0  0  0  0  0  0  0  0  0  0  0  0
    1.7520    7.4410  -10.6510 H   0  0  0  0  0  0  0  0  0  0  0  0
    3.2710    7.3350   -9.7300 H   0  0  0  0  0  0  0  0  0  0  0  0
    3.1220    9.0400  -11.0060 C   0  0  0  0  0  0  0  0  0  0  0  0
    2.4190    9.6990  -11.9770 C   0  0  0  0  0  0  0  0  0  0  0  0
    1.6340    9.1740  -12.5200 H   0  0  0  0  0  0  0  0  0  0  0  0
    4.1580    9.7400  -10.3510 C   0  0  0  0  0  0  0  0  0  0  0  0
    4.7460    9.2230   -9.5930 H   0  0  0  0  0  0  0  0  0  0  0  0
    2.7000   11.0760  -12.2930 C   0  0  0  0  0  0  0  0  0  0  0  0
    2.1060   11.5870  -13.0510 H   0  0  0  0  0  0  0  0  0  0  0  0
    4.4620   11.1120  -10.6520 C   0  0  0  0  0  0  0  0  0  0  0  0
    5.2550   11.6380  -10.1200 H   0  0  0  0  0  0  0  0  0  0  0  0
    3.7150   11.7570  -11.6450 C   0  0  0  0  0  0  0  0  0  0  0  0
    3.9630   13.0750  -12.0290 O   0  0  0  0  0  0  0  0  0  0  0  0
    3.3260   13.3360  -12.7410 H   0  0  0  0  0  0  0  0  0  0  0  0
   10.9780    6.3050   -4.9480 N   0  0  0  0  0  2  0  0  0  0  0  0
   10.1880    5.9880   -5.5450 H   0  0  0  0  0  0  0  0  0  0  0  0
   10.7200    6.5580   -3.5270 C   0  0  2  0  0  0  0  0  0  0  0  0
   10.9690    7.6020   -3.3390 H   0  0  0  0  0  0  0  0  0  0  0  0
   11.6250    5.7190   -2.6400 C   0  0  0  0  0  3  0  0  0  0  0  0
   12.2670    6.2920   -1.7970 O   0  0  0  0  0  0  0  0  0  0  0  0
    9.2040    6.4100   -3.1540 C   0  0  0  0  0  0  0  0  0  0  0  0
    8.6640    7.2090   -3.6620 H   0  0  0  0  0  0  0  0  0  0  0  0
    8.8680    5.4460   -3.5360 H   0  0  0  0  0  0  0  0  0  0  0  0
    8.8060    6.4750   -1.6050 C   0  0  0  0  0  0  0  0  0  0  0  0
    9.0730    5.5270   -1.1380 H   0  0  0  0  0  0  0  0  0  0  0  0
    9.3690    7.2810   -1.1350 H   0  0  0  0  0  0  0  0  0  0  0  0
    7.2710    6.7340   -1.3710 C   0  0  0  0  0  0  0  0  0  0  0  0
    6.9860    6.4380   -0.3620 H   0  0  0  0  0  0  0  0  0  0  0  0
    6.6770    6.1740   -2.0940 H   0  0  0  0  0  0  0  0  0  0  0  0
    7.0740    8.1750   -1.5550 N   0  0  0  0  0  0  0  0  0  0  0  0
    7.9010    8.7810   -1.3810 H   0  0  0  0  0  0  0  0  0  0  0  0
    5.9530    8.7950   -1.9200 C   0  0  0  0  0  0  0  0  0  0  0  0
    4.8300    8.1290   -2.1550 N   0  0  0  0  0  4  0  0  0  0  0  0
    4.8090    7.0940   -2.0560 H   0  0  0  0  0  0  0  0  0  0  0  0
    3.9710    8.6420   -2.4390 H   0  0  0  0  0  0  0  0  0  0  0  0
    5.9750   10.1110   -2.0680 N   0  0  0  0  0  0  0  0  0  0  0  0
    6.8550   10.6390   -1.9000 H   0  0  0  0  0  0  0  0  0  0  0  0
    5.1120   10.6170   -2.3520 H   0  0  0  0  0  0  0  0  0  0  0  0
   11.6800   13.6970    2.1500 N   0  0  0  0  0  2  0  0  0  0  0  0
   11.0060   14.3750    1.7400 H   0  0  0  0  0  0  0  0  0  0  0  0
   12.3750   12.7460    1.2760 C   0  0  2  0  0  0  0  0  0  0  0  0
   12.5890   11.8420    1.8460 H   0  0  0  0  0  0  0  0  0  0  0  0
   13.6730   13.4000    0.7880 C   0  0  0  0  0  3  0  0  0  0  0  0
   13.6690   14.3550    0.0170 O   0  0  0  0  0  0  0  0  0  0  0  0
   11.5200   12.3200    0.0890 C   0  0  0  0  0  0  0  0  0  0  0  0
   11.3570   13.1990   -0.5350 H   0  0  0  0  0  0  0  0  0  0  0  0
   12.0810   11.5750   -0.4740 H   0  0  0  0  0  0  0  0  0  0  0  0
   10.1640   11.7270    0.4160 C   0  0  0  0  0  0  0  0  0  0  0  0
   10.0310   10.3500    0.7370 C   0  0  0  0  0  0  0  0  0  0  0  0
   10.9170    9.7150    0.7680 H   0  0  0  0  0  0  0  0  0  0  0  0
    9.0060   12.5450    0.3790 C   0  0  0  0  0  0  0  0  0  0  0  0
    9.1020   13.6000    0.1210 H   0  0  0  0  0  0  0  0  0  0  0  0
    8.7740    9.8000    1.0140 C   0  0  0  0  0  0  0  0  0  0  0  0
    8.6750    8.7420    1.2580 H   0  0  0  0  0  0  0  0  0  0  0  0
    7.7410   12.0170    0.6690 C   0  0  0  0  0  0  0  0  0  0  0  0
    6.8570   12.6550    0.6610 H   0  0  0  0  0  0  0  0  0  0  0  0
    7.6340   10.6360    0.9730 C   0  0  0  0  0  0  0  0  0  0  0  0
    6.3730   10.1120    1.2340 O   0  0  0  0  0  0  0  0  0  0  0  0
    6.4530    9.1450    1.4290 H   0  0  0  0  0  0  0  0  0  0  0  0
    6.8140   13.4770   -8.2220 H   0  0  0  0  0  0  0  0  0  0  0  0
   -8.7350    4.5970   -6.3320 H   0  0  0  0  0  0  0  0  0  0  0  0
  1  2  1  0
  1  3  1  0
  3  4  1  6
  3  5  1  0
  3  7  1  0
  5  6  2  0
  7  8  1  0
  7  9  1  0
  7 10  1  0
 10 11  2  0
 10 12  1  0
 12250  1  0
 13 14  1  0
 13 15  1  0
 15 16  1  6
 15 17  1  0
 15 19  1  0
 17 18  2  0
 17 24  1  0
 19 20  1  0
 19 21  1  0
 19 22  1  0
 22 23  1  0
 24 25  1  0
 24 26  1  0
 26 27  1  1
 26 28  1  0
 26 30  1  0
 28 29  2  0
 28 35  1  0
 30 31  1  0
 30 32  1  0
 30 33  1  0
 33 34  1  0
 35 36  1  0
 35 37  1  0
 37 38  1  6
 37 39  1  0
 37 41  1  0
 39 40  2  0
 41 42  1  0
 41 43  1  0
 41 44  1  0
 44 45  2  0
 44 47  1  0
 45 46  1  0
 45 49  1  0
 47 48  1  0
 47 51  2  0
 49 50  1  0
 49 53  2  0
 51 52  1  0
 51 53  1  0
 53 54  1  0
 55 56  1  0
 55 57  1  0
 57 58  1  6
 57 59  1  0
 57 61  1  0
 59 60  2  0
 61 62  1  0
 61 63  1  0
 61 67  1  0
 63 64  1  0
 63 65  1  0
 63 66  1  0
 67 68  1  0
 67 69  1  0
 67 70  1  0
 71 72  1  0
 71 73  1  0
 73 74  1  1
 73 75  1  0
 73 77  1  0
 75 76  2  0
 77 78  1  6
 77 79  1  0
 77 82  1  0
 79 80  1  0
 79 81  1  0
 79 86  1  0
 82 83  1  0
 82 84  1  0
 82 85  1  0
 86 87  1  0
 86 88  1  0
 86 89  1  0
 90 91  1  0
 90 92  1  0
 92 93  1  6
 92 94  1  0
 92 96  1  0
 94 95  2  0
 96 97  1  0
 96 98  1  0
 96 99  1  0
 99100  1  0
 99101  2  0
100103  2  0
101102  1  0
101105  1  0
103104  1  0
103105  1  0
105251  1  0
106107  1  0
106108  1  0
108109  1  1
108110  1  0
108112  1  0
110111  2  0
112113  1  0
112114  1  0
112118  1  0
114115  1  0
114116  1  0
114117  1  0
118119  1  0
118120  1  0
118121  1  0
122123  1  0
122124  1  0
124125  1  1
124126  1  0
124128  1  0
126127  2  0
126132  1  0
128129  1  0
128130  1  0
128131  1  0
132133  1  0
132134  1  0
134135  1  1
134136  1  0
134138  1  0
136137  2  0
136143  1  0
138139  1  0
138140  1  0
138141  1  0
141142  1  0
143144  1  0
143145  1  0
145146  1  1
145147  1  0
145149  1  0
147148  2  0
149150  1  0
149151  1  0
149152  1  0
152153  1  0
152154  1  0
152158  1  0
154155  1  0
154156  1  0
154157  1  0
158159  1  0
158160  1  0
158161  1  0
162163  1  0
162164  1  0
164165  1  6
164166  1  0
164168  1  0
166167  2  0
166184  1  0
168169  1  0
168170  1  0
168171  1  0
171172  1  0
171173  1  0
171174  1  0
174175  1  0
174176  1  0
174177  1  0
177178  1  0
177179  1  0
177180  1  0
180181  1  0
180182  1  0
180183  1  0
184185  1  0
184186  1  0
186187  1  6
186188  1  0
186190  1  0
188189  2  0
190191  1  0
190192  1  0
190193  1  0
193194  2  0
193196  1  0
194195  1  0
194198  1  0
196197  1  0
196200  2  0
198199  1  0
198202  2  0
200201  1  0
200202  1  0
202203  1  0
203204  1  0
205206  1  0
205207  1  0
207208  1  6
207209  1  0
207211  1  0
209210  2  0
211212  1  0
211213  1  0
211214  1  0
214215  1  0
214216  1  0
214217  1  0
217218  1  0
217219  1  0
217220  1  0
220221  1  0
220222  1  0
222223  2  0
222226  1  0
223224  1  0
223225  1  0
226227  1  0
226228  1  0
229230  1  0
229231  1  0
231232  1  1
231233  1  0
231235  1  0
233234  2  0
235236  1  0
235237  1  0
235238  1  0
238239  2  0
238241  1  0
239240  1  0
239243  1  0
241242  1  0
241245  2  0
243244  1  0
243247  2  0
245246  1  0
245247  1  0
247248  1  0
248249  1  0
M  RAD  8   1   2   5   2  13   2  39   2  55   2  59   2  71   2  75   2
M  RAD  8  90   2  94   2 106   2 110   2 122   2 147   2 162   2 188   2
M  CHG  2 180   1 223   1
M  RAD  4 205   2 209   2 229   2 233   2
M  END
$$$$

     RDKit          3D

251245  0  0  0  0  0  0  0  0999 V2000
    8.2390   15.7430  -10.2460 N   0  0  0  0  0  2  0  0  0  0  0  0
    8.4060   14.8450   -9.7480 H   0  0  0  0  0  0  0  0  0  0  0  0
    7.1270   16.5820   -9.8330 C   0  0  2  0  0  0  0  0  0  0  0  0
    6.5240   16.7530  -10.7240 H   0  0  0  0  0  0  0  0  0  0  0  0
    7.5010   17.9630   -9.3590 C   0  0  0  0  0  3  0  0  0  0  0  0
    8.3130   18.1090   -8.4540 O   0  0  0  0  0  0  0  0  0  0  0  0
    6.3630   15.8620   -8.7680 C   0  0  0  0  0  0  0  0  0  0  0  0
    7.0440   15.5910   -7.9610 H   0  0  0  0  0  0  0  0  0  0  0  0
    5.5850   16.5200   -8.3800 H   0  0  0  0  0  0  0  0  0  0  0  0
    5.7360   14.6350   -9.3040 C   0  0  0  0  0  0  0  0  0  0  0  0
    4.8520   14.7920  -10.1880 O   0  0  0  0  0  0  0  0  0  0  0  0
    6.1520   13.5130   -8.8840 O   0  0  0  0  0  0  0  0  0  0  0  0
    1.6580   16.8130  -11.9920 N   0  0  0  0  0  2  0  0  0  0  0  0
    2.3630   16.6600  -11.2430 H   0  0  0  0  0  0  0  0  0  0  0  0
    0.5750   15.8710  -12.1280 C   0  0  2  0  0  0  0  0  0  0  0  0
    0.1290   15.9910  -13.1150 H   0  0  0  0  0  0  0  0  0  0  0  0
   -0.5220   16.1130  -11.1130 C   0  0  0  0  0  0  0  0  0  0  0  0
   -0.2990   16.7340  -10.0760 O   0  0  0  0  0  0  0  0  0  0  0  0
    1.1300   14.4960  -11.9520 C   0  0  0  0  0  0  0  0  0  0  0  0
    0.3140   13.7740  -11.9180 H   0  0  0  0  0  0  0  0  0  0  0  0
    1.6970   14.4460  -11.0220 H   0  0  0  0  0  0  0  0  0  0  0  0
    1.9940   14.1960  -13.0610 O   0  0  0  0  0  0  0  0  0  0  0  0
    2.3660   13.2850  -12.9510 H   0  0  0  0  0  0  0  0  0  0  0  0
   -1.7070   15.5990  -11.3820 N   0  0  0  0  0  0  0  0  0  0  0  0
   -1.8300   15.0390  -12.2500 H   0  0  0  0  0  0  0  0  0  0  0  0
   -2.8500   15.7940  -10.4960 C   0  0  2  0  0  0  0  0  0  0  0  0
   -2.4940   15.6940   -9.4710 H   0  0  0  0  0  0  0  0  0  0  0  0
   -3.9360   14.7420  -10.7100 C   0  0  0  0  0  0  0  0  0  0  0  0
   -4.1170   14.2150  -11.8220 O   0  0  0  0  0  0  0  0  0  0  0  0
   -3.4310   17.1680  -10.7260 C   0  0  0  0  0  0  0  0  0  0  0  0
   -3.6970   17.2780  -11.7770 H   0  0  0  0  0  0  0  0  0  0  0  0
   -2.6920   17.9230  -10.4590 H   0  0  0  0  0  0  0  0  0  0  0  0
   -4.5930   17.3400   -9.9250 O   0  0  0  0  0  0  0  0  0  0  0  0
   -4.9690   18.2430  -10.0800 H   0  0  0  0  0  0  0  0  0  0  0  0
   -4.6520   14.4140   -9.6350 N   0  0  0  0  0  0  0  0  0  0  0  0
   -4.3590   14.7920   -8.7110 H   0  0  0  0  0  0  0  0  0  0  0  0
   -5.8320   13.5460   -9.6910 C   0  0  2  0  0  0  0  0  0  0  0  0
   -5.6450   12.7780  -10.4420 H   0  0  0  0  0  0  0  0  0  0  0  0
   -7.0770   14.3290  -10.1220 C   0  0  0  0  0  3  0  0  0  0  0  0
   -8.0250   13.7390  -10.5890 O   0  0  0  0  0  0  0  0  0  0  0  0
   -6.0610   12.8570   -8.3570 C   0  0  0  0  0  0  0  0  0  0  0  0
   -5.9730   13.6020   -7.5670 H   0  0  0  0  0  0  0  0  0  0  0  0
   -7.0700   12.4440   -8.3540 H   0  0  0  0  0  0  0  0  0  0  0  0
   -5.0730   11.7210   -8.0610 C   0  0  0  0  0  0  0  0  0  0  0  0
   -4.0720   11.8810   -7.1020 C   0  0  0  0  0  0  0  0  0  0  0  0
   -3.9860   12.8270   -6.5670 H   0  0  0  0  0  0  0  0  0  0  0  0
   -5.1740   10.4980   -8.7080 C   0  0  0  0  0  0  0  0  0  0  0  0
   -5.9560   10.3530   -9.4530 H   0  0  0  0  0  0  0  0  0  0  0  0
   -3.1820   10.8480   -6.8190 C   0  0  0  0  0  0  0  0  0  0  0  0
   -2.4060   10.9870   -6.0660 H   0  0  0  0  0  0  0  0  0  0  0  0
   -4.2920    9.4420   -8.4250 C   0  0  0  0  0  0  0  0  0  0  0  0
   -4.4060    8.4830   -8.9310 H   0  0  0  0  0  0  0  0  0  0  0  0
   -3.2860    9.6220   -7.5080 C   0  0  0  0  0  0  0  0  0  0  0  0
   -2.5720    8.8220   -7.3140 H   0  0  0  0  0  0  0  0  0  0  0  0
   -3.3140    5.0230  -13.0570 N   0  0  0  0  0  2  0  0  0  0  0  0
   -4.1400    5.6150  -12.8370 H   0  0  0  0  0  0  0  0  0  0  0  0
   -2.5170    4.4610  -11.9940 C   0  0  2  0  0  0  0  0  0  0  0  0
   -1.7250    3.8470  -12.4230 H   0  0  0  0  0  0  0  0  0  0  0  0
   -3.4380    3.6400  -11.1070 C   0  0  0  0  0  3  0  0  0  0  0  0
   -4.4710    4.1900  -10.6370 O   0  0  0  0  0  0  0  0  0  0  0  0
   -1.8540    5.5840  -11.1350 C   0  0  0  0  0  0  0  0  0  0  0  0
   -2.6490    6.2450  -10.7900 H   0  0  0  0  0  0  0  0  0  0  0  0
   -1.1450    4.9970   -9.9330 C   0  0  0  0  0  0  0  0  0  0  0  0
   -1.8650    4.4610   -9.3150 H   0  0  0  0  0  0  0  0  0  0  0  0
   -0.3700    4.3090  -10.2700 H   0  0  0  0  0  0  0  0  0  0  0  0
   -0.6920    5.8000   -9.3520 H   0  0  0  0  0  0  0  0  0  0  0  0
   -0.8790    6.3820  -11.9530 C   0  0  0  0  0  0  0  0  0  0  0  0
   -0.0980    5.7220  -12.3300 H   0  0  0  0  0  0  0  0  0  0  0  0
   -1.4020    6.8440  -12.7900 H   0  0  0  0  0  0  0  0  0  0  0  0
   -0.4320    7.1570  -11.3300 H   0  0  0  0  0  0  0  0  0  0  0  0
   -4.5210    2.0210   -7.7850 N   0  0  0  0  0  2  0  0  0  0  0  0
   -5.4600    2.1270   -8.2190 H   0  0  0  0  0  0  0  0  0  0  0  0
   -4.3760    2.2860   -6.3400 C   0  0  2  0  0  0  0  0  0  0  0  0
   -3.3700    1.9630   -6.0710 H   0  0  0  0  0  0  0  0  0  0  0  0
   -5.3740    1.4700   -5.5200 C   0  0  0  0  0  3  0  0  0  0  0  0
   -6.6090    1.7400   -5.5300 O   0  0  0  0  0  0  0  0  0  0  0  0
   -4.4620    3.8040   -5.9870 C   0  0  2  0  0  0  0  0  0  0  0  0
   -5.4400    4.1780   -6.2900 H   0  0  0  0  0  0  0  0  0  0  0  0
   -3.3750    4.5860   -6.7450 C   0  0  0  0  0  0  0  0  0  0  0  0
   -2.4260    4.4330   -6.2310 H   0  0  0  0  0  0  0  0  0  0  0  0
   -3.3090    4.1820   -7.7550 H   0  0  0  0  0  0  0  0  0  0  0  0
   -4.3050    4.0130   -4.4580 C   0  0  0  0  0  0  0  0  0  0  0  0
   -5.1000    3.4810   -3.9360 H   0  0  0  0  0  0  0  0  0  0  0  0
   -3.3370    3.6280   -4.1370 H   0  0  0  0  0  0  0  0  0  0  0  0
   -4.3670    5.0770   -4.2300 H   0  0  0  0  0  0  0  0  0  0  0  0
   -3.6210    6.0930   -6.8510 C   0  0  0  0  0  0  0  0  0  0  0  0
   -4.5590    6.2710   -7.3760 H   0  0  0  0  0  0  0  0  0  0  0  0
   -3.6760    6.5220   -5.8510 H   0  0  0  0  0  0  0  0  0  0  0  0
   -2.8020    6.5560   -7.4010 H   0  0  0  0  0  0  0  0  0  0  0  0
   -7.1030    4.9550  -11.2140 N   0  0  0  0  0  2  0  0  0  0  0  0
   -6.1220    4.6450  -11.0650 H   0  0  0  0  0  0  0  0  0  0  0  0
   -7.3690    6.3930  -11.2260 C   0  0  2  0  0  0  0  0  0  0  0  0
   -8.4260    6.5500  -11.4390 H   0  0  0  0  0  0  0  0  0  0  0  0
   -6.5510    7.1110  -12.3230 C   0  0  0  0  0  3  0  0  0  0  0  0
   -5.3670    6.8340  -12.4820 O   0  0  0  0  0  0  0  0  0  0  0  0
   -6.9990    6.9690   -9.8590 C   0  0  0  0  0  0  0  0  0  0  0  0
   -5.9460    6.7590   -9.6690 H   0  0  0  0  0  0  0  0  0  0  0  0
   -7.1550    8.0480   -9.8840 H   0  0  0  0  0  0  0  0  0  0  0  0
   -7.8100    6.3970   -8.7320 C   0  0  0  0  0  0  0  0  0  0  0  0
   -9.1120    6.7880   -8.4820 N   0  0  0  0  0  0  0  0  0  0  0  0
   -7.5200    5.4300   -7.8250 C   0  0  0  0  0  0  0  0  0  0  0  0
   -6.5730    4.9000   -7.7210 H   0  0  0  0  0  0  0  0  0  0  0  0
   -9.5840    6.0790   -7.4730 C   0  0  0  0  0  0  0  0  0  0  0  0
  -10.5840    6.1660   -7.0470 H   0  0  0  0  0  0  0  0  0  0  0  0
   -8.6430    5.2470   -7.0660 N   0  0  0  0  0  0  0  0  0  0  0  0
   -4.3430    9.9870  -13.8600 N   0  0  0  0  0  2  0  0  0  0  0  0
   -3.9430    9.2670  -14.4950 H   0  0  0  0  0  0  0  0  0  0  0  0
   -3.4660   11.0950  -13.4060 C   0  0  2  0  0  0  0  0  0  0  0  0
   -3.9980   11.6020  -12.6010 H   0  0  0  0  0  0  0  0  0  0  0  0
   -3.1980   12.0700  -14.5610 C   0  0  0  0  0  3  0  0  0  0  0  0
   -2.6940   11.6660  -15.6100 O   0  0  0  0  0  0  0  0  0  0  0  0
   -2.1230   10.5980  -12.8370 C   0  0  0  0  0  0  0  0  0  0  0  0
   -1.6160   10.0380  -13.6230 H   0  0  0  0  0  0  0  0  0  0  0  0
   -1.2160   11.7770  -12.4230 C   0  0  0  0  0  0  0  0  0  0  0  0
   -1.0140   12.4010  -13.2930 H   0  0  0  0  0  0  0  0  0  0  0  0
   -1.7190   12.3690  -11.6580 H   0  0  0  0  0  0  0  0  0  0  0  0
   -0.2780   11.3900  -12.0260 H   0  0  0  0  0  0  0  0  0  0  0  0
   -2.3600    9.6900  -11.6480 C   0  0  0  0  0  0  0  0  0  0  0  0
   -2.8940   10.2400  -10.8730 H   0  0  0  0  0  0  0  0  0  0  0  0
   -2.9540    8.8310  -11.9610 H   0  0  0  0  0  0  0  0  0  0  0  0
   -1.4020    9.3470  -11.2570 H   0  0  0  0  0  0  0  0  0  0  0  0
   10.6540   11.3050   -5.5760 N   0  0  0  0  0  2  0  0  0  0  0  0
   10.3920   12.2850   -5.8030 H   0  0  0  0  0  0  0  0  0  0  0  0
   10.0940   10.6720   -4.3490 C   0  0  2  0  0  0  0  0  0  0  0  0
   10.8680    9.9920   -3.9930 H   0  0  0  0  0  0  0  0  0  0  0  0
    8.8430    9.8410   -4.6350 C   0  0  0  0  0  0  0  0  0  0  0  0
    8.3760    9.1070   -3.7350 O   0  0  0  0  0  0  0  0  0  0  0  0
    9.8210   11.6790   -3.2540 C   0  0  0  0  0  0  0  0  0  0  0  0
   10.7510   12.1790   -2.9810 H   0  0  0  0  0  0  0  0  0  0  0  0
    9.1020   12.4160   -3.6110 H   0  0  0  0  0  0  0  0  0  0  0  0
    9.4140   11.1650   -2.3830 H   0  0  0  0  0  0  0  0  0  0  0  0
    8.3280    9.9240   -5.8760 N   0  0  0  0  0  0  0  0  0  0  0  0
    8.8050   10.5390   -6.5650 H   0  0  0  0  0  0  0  0  0  0  0  0
    7.1420    9.2010   -6.3060 C   0  0  2  0  0  0  0  0  0  0  0  0
    6.4000    9.3360   -5.5190 H   0  0  0  0  0  0  0  0  0  0  0  0
    7.4250    7.7530   -6.4980 C   0  0  0  0  0  0  0  0  0  0  0  0
    8.5700    7.2700   -6.4620 O   0  0  0  0  0  0  0  0  0  0  0  0
    6.6180    9.7450   -7.6390 C   0  0  0  0  0  0  0  0  0  0  0  0
    5.6190    9.3460   -7.8150 H   0  0  0  0  0  0  0  0  0  0  0  0
    7.2840    9.4210   -8.4390 H   0  0  0  0  0  0  0  0  0  0  0  0
    6.5530   11.1910   -7.6390 O   0  0  0  0  0  0  0  0  0  0  0  0
    6.2110   11.5050   -8.5140 H   0  0  0  0  0  0  0  0  0  0  0  0
    6.3550    7.0580   -6.8100 N   0  0  0  0  0  0  0  0  0  0  0  0
    5.4610    7.5640   -6.9720 H   0  0  0  0  0  0  0  0  0  0  0  0
    6.3700    5.6400   -6.9350 C   0  0  2  0  0  0  0  0  0  0  0  0
    7.1620    5.1570   -6.3640 H   0  0  0  0  0  0  0  0  0  0  0  0
    6.5790    5.3360   -8.4090 C   0  0  0  0  0  3  0  0  0  0  0  0
    6.0940    6.0730   -9.2600 O   0  0  0  0  0  0  0  0  0  0  0  0
    5.0220    5.1190   -6.4090 C   0  0  0  0  0  0  0  0  0  0  0  0
    4.2350    5.7010   -6.8870 H   0  0  0  0  0  0  0  0  0  0  0  0
    4.9330    4.0750   -6.7090 H   0  0  0  0  0  0  0  0  0  0  0  0
    4.7900    5.1880   -4.8740 C   0  0  0  0  0  0  0  0  0  0  0  0
    5.0100    6.2120   -4.5710 H   0  0  0  0  0  0  0  0  0  0  0  0
    3.3110    4.7880   -4.5700 C   0  0  0  0  0  0  0  0  0  0  0  0
    2.6380    5.4790   -5.0770 H   0  0  0  0  0  0  0  0  0  0  0  0
    3.1300    3.7740   -4.9260 H   0  0  0  0  0  0  0  0  0  0  0  0
    3.1370    4.8330   -3.4950 H   0  0  0  0  0  0  0  0  0  0  0  0
    5.7270    4.2640   -4.0560 C   0  0  0  0  0  0  0  0  0  0  0  0
    5.5710    3.2290   -4.3610 H   0  0  0  0  0  0  0  0  0  0  0  0
    6.7640    4.5460   -4.2400 H   0  0  0  0  0  0  0  0  0  0  0  0
    5.5030    4.3690   -2.9940 H   0  0  0  0  0  0  0  0  0  0  0  0
    5.3050    3.2970  -10.3550 N   0  0  0  0  0  2  0  0  0  0  0  0
    5.3190    3.2100   -9.3190 H   0  0  0  0  0  0  0  0  0  0  0  0
    4.1120    2.9140  -11.0930 C   0  0  2  0  0  0  0  0  0  0  0  0
    4.3770    2.2010  -11.8730 H   0  0  0  0  0  0  0  0  0  0  0  0
    3.5250    4.1710  -11.7290 C   0  0  0  0  0  0  0  0  0  0  0  0
    2.8290    4.0740  -12.7370 O   0  0  0  0  0  0  0  0  0  0  0  0
    3.0890    2.1810  -10.2000 C   0  0  0  0  0  0  0  0  0  0  0  0
    2.2390    1.8870  -10.8160 H   0  0  0  0  0  0  0  0  0  0  0  0
    3.5630    1.2900   -9.7890 H   0  0  0  0  0  0  0  0  0  0  0  0
    2.5850    3.0260   -9.0590 C   0  0  0  0  0  0  0  0  0  0  0  0
    3.2850    2.9380   -8.2280 H   0  0  0  0  0  0  0  0  0  0  0  0
    2.5440    4.0640   -9.3890 H   0  0  0  0  0  0  0  0  0  0  0  0
    1.2080    2.6210   -8.5730 C   0  0  0  0  0  0  0  0  0  0  0  0
    0.7530    3.4710   -8.0650 H   0  0  0  0  0  0  0  0  0  0  0  0
    0.6000    2.3470   -9.4350 H   0  0  0  0  0  0  0  0  0  0  0  0
    1.2480    1.4500   -7.6160 C   0  0  0  0  0  0  0  0  0  0  0  0
    2.1300    1.5540   -6.9850 H   0  0  0  0  0  0  0  0  0  0  0  0
    1.3270    0.5330   -8.2000 H   0  0  0  0  0  0  0  0  0  0  0  0
    0.0220    1.3380   -6.7120 N   0  0  0  0  0  4  0  0  0  0  0  0
   -0.0630    2.2000   -6.1370 H   0  0  0  0  0  0  0  0  0  0  0  0
   -0.8300    1.2250   -7.2980 H   0  0  0  0  0  0  0  0  0  0  0  0
    0.1270    0.5130   -6.0880 H   0  0  0  0  0  0  0  0  0  0  0  0
    3.8150    5.3320  -11.1570 N   0  0  0  0  0  0  0  0  0  0  0  0
    4.3440    5.3460  -10.2620 H   0  0  0  0  0  0  0  0  0  0  0  0
    3.4060    6.5700  -11.7600 C   0  0  2  0  0  0  0  0  0  0  0  0
    2.6010    6.3500  -12.4610 H   0  0  0  0  0  0  0  0  0  0  0  0
    4.5830    7.2000  -12.5340 C   0  0  0  0  0  3  0  0  0  0  0  0
    4.3900    7.6850  -13.6440 O   0  0  0  0  0  0  0  0  0  0  0  0
    2.8330    7.5740  -10.6990 C   0  0  0  0  0  0  0  0  0  0  0  0
    1.7520    7.4410  -10.6510 H   0  0  0  0  0  0  0  0  0  0  0  0
    3.2710    7.3350   -9.7300 H   0  0  0  0  0  0  0  0  0  0  0  0
    3.1220    9.0400  -11.0060 C   0  0  0  0  0  0  0  0  0  0  0  0
    2.4190    9.6990  -11.9770 C   0  0  0  0  0  0  0  0  0  0  0  0
    1.6340    9.1740  -12.5200 H   0  0  0  0  0  0  0  0  0  0  0  0
    4.1580    9.7400  -10.3510 C   0  0  0  0  0  0  0  0  0  0  0  0
    4.7460    9.2230   -9.5930 H   0  0  0  0  0  0  0  0  0  0  0  0
    2.7000   11.0760  -12.2930 C   0  0  0  0  0  0  0  0  0  0  0  0
    2.1060   11.5870  -13.0510 H   0  0  0  0  0  0  0  0  0  0  0  0
    4.4620   11.1120  -10.6520 C   0  0  0  0  0  0  0  0  0  0  0  0
    5.2550   11.6380  -10.1200 H   0  0  0  0  0  0  0  0  0  0  0  0
    3.7150   11.7570  -11.6450 C   0  0  0  0  0  0  0  0  0  0  0  0
    3.9630   13.0750  -12.0290 O   0  0  0  0  0  0  0  0  0  0  0  0
    3.3260   13.3360  -12.7410 H   0  0  0  0  0  0  0  0  0  0  0  0
   10.9780    6.3050   -4.9480 N   0  0  0  0  0  2  0  0  0  0  0  0
   10.1880    5.9880   -5.5450 H   0  0  0  0  0  0  0  0  0  0  0  0
   10.7200    6.5580   -3.5270 C   0  0  2  0  0  0  0  0  0  0  0  0
   10.9690    7.6020   -3.3390 H   0  0  0  0  0  0  0  0  0  0  0  0
   11.6250    5.7190   -2.6400 C   0  0  0  0  0  3  0  0  0  0  0  0
   12.2670    6.2920   -1.7970 O   0  0  0  0  0  0  0  0  0  0  0  0
    9.2040    6.4100   -3.1540 C   0  0  0  0  0  0  0  0  0  0  0  0
    8.6640    7.2090   -3.6620 H   0  0  0  0  0  0  0  0  0  0  0  0
    8.8680    5.4460   -3.5360 H   0  0  0  0  0  0  0  0  0  0  0  0
    8.8060    6.4750   -1.6050 C   0  0  0  0  0  0  0  0  0  0  0  0
    9.0730    5.5270   -1.1380 H   0  0  0  0  0  0  0  0  0  0  0  0
    9.3690    7.2810   -1.1350 H   0  0  0  0  0  0  0  0  0  0  0  0
    7.2710    6.7340   -1.3710 C   0  0  0  0  0  0  0  0  0  0  0  0
    6.9860    6.4380   -0.3620 H   0  0  0  0  0  0  0  0  0  0  0  0
    6.6770    6.1740   -2.0940 H   0  0  0  0  0  0  0  0  0  0  0  0
    7.0740    8.1750   -1.5550 N   0  0  0  0  0  0  0  0  0  0  0  0
    7.9010    8.7810   -1.3810 H   0  0  0  0  0  0  0  0  0  0  0  0
    5.9530    8.7950   -1.9200 C   0  0  0  0  0  0  0  0  0  0  0  0
    4.8300    8.1290   -2.1550 N   0  0  0  0  0  4  0  0  0  0  0  0
    4.8090    7.0940   -2.0560 H   0  0  0  0  0  0  0  0  0  0  0  0
    3.9710    8.6420   -2.4390 H   0  0  0  0  0  0  0  0  0  0  0  0
    5.9750   10.1110   -2.0680 N   0  0  0  0  0  0  0  0  0  0  0  0
    6.8550   10.6390   -1.9000 H   0  0  0  0  0  0  0  0  0  0  0  0
    5.1120   10.6170   -2.3520 H   0  0  0  0  0  0  0  0  0  0  0  0
   11.6800   13.6970    2.1500 N   0  0  0  0  0  2  0  0  0  0  0  0
   11.0060   14.3750    1.7400 H   0  0  0  0  0  0  0  0  0  0  0  0
   12.3750   12.7460    1.2760 C   0  0  2  0  0  0  0  0  0  0  0  0
   12.5890   11.8420    1.8460 H   0  0  0  0  0  0  0  0  0  0  0  0
   13.6730   13.4000    0.7880 C   0  0  0  0  0  3  0  0  0  0  0  0
   13.6690   14.3550    0.0170 O   0  0  0  0  0  0  0  0  0  0  0  0
   11.5200   12.3200    0.0890 C   0  0  0  0  0  0  0  0  0  0  0  0
   11.3570   13.1990   -0.5350 H   0  0  0  0  0  0  0  0  0  0  0  0
   12.0810   11.5750   -0.4740 H   0  0  0  0  0  0  0  0  0  0  0  0
   10.1640   11.7270    0.4160 C   0  0  0  0  0  0  0  0  0  0  0  0
   10.0310   10.3500    0.7370 C   0  0  0  0  0  0  0  0  0  0  0  0
   10.9170    9.7150    0.7680 H   0  0  0  0  0  0  0  0  0  0  0  0
    9.0060   12.5450    0.3790 C   0  0  0  0  0  0  0  0  0  0  0  0
    9.1020   13.6000    0.1210 H   0  0  0  0  0  0  0  0  0  0  0  0
    8.7740    9.8000    1.0140 C   0  0  0  0  0  0  0  0  0  0  0  0
    8.6750    8.7420    1.2580 H   0  0  0  0  0  0  0  0  0  0  0  0
    7.7410   12.0170    0.6690 C   0  0  0  0  0  0  0  0  0  0  0  0
    6.8570   12.6550    0.6610 H   0  0  0  0  0  0  0  0  0  0  0  0
    7.6340   10.6360    0.9730 C   0  0  0  0  0  0  0  0  0  0  0  0
    6.3730   10.1120    1.2340 O   0  0  0  0  0  0  0  0  0  0  0  0
    6.4530    9.1450    1.4290 H   0  0  0  0  0  0  0  0  0  0  0  0
    6.8140   13.4770   -8.2220 H   0  0  0  0  0  0  0  0  0  0  0  0
   -8.7350    4.5970   -6.3320 H   0  0  0  0  0  0  0  0  0  0  0  0
  1  2  1  0
  1  3  1  0
  3  4  1  6
  3  5  1  0
  3  7  1  0
  5  6  2  0
  7  8  1  0
  7  9  1  0
  7 10  1  0
 10 11  2  0
 10 12  1  0
 12250  1  0
 13 14  1  0
 13 15  1  0
 15 16  1  6
 15 17  1  0
 15 19  1  0
 17 18  2  0
 17 24  1  0
 19 20  1  0
 19 21  1  0
 19 22  1  0
 22 23  1  0
 24 25  1  0
 24 26  1  0
 26 27  1  1
 26 28  1  0
 26 30  1  0
 28 29  2  0
 28 35  1  0
 30 31  1  0
 30 32  1  0
 30 33  1  0
 33 34  1  0
 35 36  1  0
 35 37  1  0
 37 38  1  6
 37 39  1  0
 37 41  1  0
 39 40  2  0
 41 42  1  0
 41 43  1  0
 41 44  1  0
 44 45  2  0
 44 47  1  0
 45 46  1  0
 45 49  1  0
 47 48  1  0
 47 51  2  0
 49 50  1  0
 49 53  2  0
 51 52  1  0
 51 53  1  0
 53 54  1  0
 55 56  1  0
 55 57  1  0
 57 58  1  6
 57 59  1  0
 57 61  1  0
 59 60  2  0
 61 62  1  0
 61 63  1  0
 61 67  1  0
 63 64  1  0
 63 65  1  0
 63 66  1  0
 67 68  1  0
 67 69  1  0
 67 70  1  0
 71 72  1  0
 71 73  1  0
 73 74  1  1
 73 75  1  0
 73 77  1  0
 75 76  2  0
 77 78  1  6
 77 79  1  0
 77 82  1  0
 79 80  1  0
 79 81  1  0
 79 86  1  0
 82 83  1  0
 82 84  1  0
 82 85  1  0
 86 87  1  0
 86 88  1  0
 86 89  1  0
 90 91  1  0
 90 92  1  0
 92 93  1  6
 92 94  1  0
 92 96  1  0
 94 95  2  0
 96 97  1  0
 96 98  1  0
 96 99  1  0
 99100  1  0
 99101  2  0
100103  2  0
101102  1  0
101105  1  0
103104  1  0
103105  1  0
105251  1  0
106107  1  0
106108  1  0
108109  1  1
108110  1  0
108112  1  0
110111  2  0
112113  1  0
112114  1  0
112118  1  0
114115  1  0
114116  1  0
114117  1  0
118119  1  0
118120  1  0
118121  1  0
122123  1  0
122124  1  0
124125  1  1
124126  1  0
124128  1  0
126127  2  0
126132  1  0
128129  1  0
128130  1  0
128131  1  0
132133  1  0
132134  1  0
134135  1  1
134136  1  0
134138  1  0
136137  2  0
136143  1  0
138139  1  0
138140  1  0
138141  1  0
141142  1  0
143144  1  0
143145  1  0
145146  1  1
145147  1  0
145149  1  0
147148  2  0
149150  1  0
149151  1  0
149152  1  0
152153  1  0
152154  1  0
152158  1  0
154155  1  0
154156  1  0
154157  1  0
158159  1  0
158160  1  0
158161  1  0
162163  1  0
162164  1  0
164165  1  6
164166  1  0
164168  1  0
166167  2  0
166184  1  0
168169  1  0
168170  1  0
168171  1  0
171172  1  0
171173  1  0
171174  1  0
174175  1  0
174176  1  0
174177  1  0
177178  1  0
177179  1  0
177180  1  0
180181  1  0
180182  1  0
180183  1  0
184185  1  0
184186  1  0
186187  1  6
186188  1  0
186190  1  0
188189  2  0
190191  1  0
190192  1  0
190193  1  0
193194  2  0
193196  1  0
194195  1  0
194198  1  0
196197  1  0
196200  2  0
198199  1  0
198202  2  0
200201  1  0
200202  1  0
202203  1  0
203204  1  0
205206  1  0
205207  1  0
207208  1  6
207209  1  0
207211  1  0
209210  2  0
211212  1  0
211213  1  0
211214  1  0
214215  1  0
214216  1  0
214217  1  0
217218  1  0
217219  1  0
217220  1  0
220221  1  0
220222  1  0
222223  2  0
222226  1  0
223224  1  0
223225  1  0
226227  1  0
226228  1  0
229230  1  0
229231  1  0
231232  1  1
231233  1  0
231235  1  0
233234  2  0
235236  1  0
235237  1  0
235238  1  0
238239  2  0
238241  1  0
239240  1  0
239243  1  0
241242  1  0
241245  2  0
243244  1  0
243247  2  0
245246  1  0
245247  1  0
247248  1  0
248249  1  0
M  RAD  8   1   2   5   2  13   2  39   2  55   2  59   2  71   2  75   2
M  RAD  8  90   2  94   2 106   2 110   2 122   2 147   2 162   2 188   2
M  CHG  2 180   1 223   1
M  RAD  4 205   2 209   2 229   2 233   2
M  END
$$$$

     RDKit          3D

251245  0  0  0  0  0  0  0  0999 V2000
    8.2390   15.7430  -10.2460 N   0  0  0  0  0  2  0  0  0  0  0  0
    8.4060   14.8450   -9.7480 H   0  0  0  0  0  0  0  0  0  0  0  0
    7.1270   16.5820   -9.8330 C   0  0  2  0  0  0  0  0  0  0  0  0
    6.5240   16.7530  -10.7240 H   0  0  0  0  0  0  0  0  0  0  0  0
    7.5010   17.9630   -9.3590 C   0  0  0  0  0  3  0  0  0  0  0  0
    8.3130   18.1090   -8.4540 O   0  0  0  0  0  0  0  0  0  0  0  0
    6.3630   15.8620   -8.7680 C   0  0  0  0  0  0  0  0  0  0  0  0
    7.0440   15.5910   -7.9610 H   0  0  0  0  0  0  0  0  0  0  0  0
    5.5850   16.5200   -8.3800 H   0  0  0  0  0  0  0  0  0  0  0  0
    5.7360   14.6350   -9.3040 C   0  0  0  0  0  0  0  0  0  0  0  0
    4.8520   14.7920  -10.1880 O   0  0  0  0  0  0  0  0  0  0  0  0
    6.1520   13.5130   -8.8840 O   0  0  0  0  0  0  0  0  0  0  0  0
    1.6580   16.8130  -11.9920 N   0  0  0  0  0  2  0  0  0  0  0  0
    2.3630   16.6600  -11.2430 H   0  0  0  0  0  0  0  0  0  0  0  0
    0.5750   15.8710  -12.1280 C   0  0  2  0  0  0  0  0  0  0  0  0
    0.1290   15.9910  -13.1150 H   0  0  0  0  0  0  0  0  0  0  0  0
   -0.5220   16.1130  -11.1130 C   0  0  0  0  0  0  0  0  0  0  0  0
   -0.2990   16.7340  -10.0760 O   0  0  0  0  0  0  0  0  0  0  0  0
    1.1300   14.4960  -11.9520 C   0  0  0  0  0  0  0  0  0  0  0  0
    0.3140   13.7740  -11.9180 H   0  0  0  0  0  0  0  0  0  0  0  0
    1.6970   14.4460  -11.0220 H   0  0  0  0  0  0  0  0  0  0  0  0
    1.9940   14.1960  -13.0610 O   0  0  0  0  0  0  0  0  0  0  0  0
    2.3660   13.2850  -12.9510 H   0  0  0  0  0  0  0  0  0  0  0  0
   -1.7070   15.5990  -11.3820 N   0  0  0  0  0  0  0  0  0  0  0  0
   -1.8300   15.0390  -12.2500 H   0  0  0  0  0  0  0  0  0  0  0  0
   -2.8500   15.7940  -10.4960 C   0  0  2  0  0  0  0  0  0  0  0  0
   -2.4940   15.6940   -9.4710 H   0  0  0  0  0  0  0  0  0  0  0  0
   -3.9360   14.7420  -10.7100 C   0  0  0  0  0  0  0  0  0  0  0  0
   -4.1170   14.2150  -11.8220 O   0  0  0  0  0  0  0  0  0  0  0  0
   -3.4310   17.1680  -10.7260 C   0  0  0  0  0  0  0  0  0  0  0  0
   -3.6970   17.2780  -11.7770 H   0  0  0  0  0  0  0  0  0  0  0  0
   -2.6920   17.9230  -10.4590 H   0  0  0  0  0  0  0  0  0  0  0  0
   -4.5930   17.3400   -9.9250 O   0  0  0  0  0  0  0  0  0  0  0  0
   -4.9690   18.2430  -10.0800 H   0  0  0  0  0  0  0  0  0  0  0  0
   -4.6520   14.4140   -9.6350 N   0  0  0  0  0  0  0  0  0  0  0  0
   -4.3590   14.7920   -8.7110 H   0  0  0  0  0  0  0  0  0  0  0  0
   -5.8320   13.5460   -9.6910 C   0  0  2  0  0  0  0  0  0  0  0  0
   -5.6450   12.7780  -10.4420 H   0  0  0  0  0  0  0  0  0  0  0  0
   -7.0770   14.3290  -10.1220 C   0  0  0  0  0  3  0  0  0  0  0  0
   -8.0250   13.7390  -10.5890 O   0  0  0  0  0  0  0  0  0  0  0  0
   -6.0610   12.8570   -8.3570 C   0  0  0  0  0  0  0  0  0  0  0  0
   -5.9730   13.6020   -7.5670 H   0  0  0  0  0  0  0  0  0  0  0  0
   -7.0700   12.4440   -8.3540 H   0  0  0  0  0  0  0  0  0  0  0  0
   -5.0730   11.7210   -8.0610 C   0  0  0  0  0  0  0  0  0  0  0  0
   -4.0720   11.8810   -7.1020 C   0  0  0  0  0  0  0  0  0  0  0  0
   -3.9860   12.8270   -6.5670 H   0  0  0  0  0  0  0  0  0  0  0  0
   -5.1740   10.4980   -8.7080 C   0  0  0  0  0  0  0  0  0  0  0  0
   -5.9560   10.3530   -9.4530 H   0  0  0  0  0  0  0  0  0  0  0  0
   -3.1820   10.8480   -6.8190 C   0  0  0  0  0  0  0  0  0  0  0  0
   -2.4060   10.9870   -6.0660 H   0  0  0  0  0  0  0  0  0  0  0  0
   -4.2920    9.4420   -8.4250 C   0  0  0  0  0  0  0  0  0  0  0  0
   -4.4060    8.4830   -8.9310 H   0  0  0  0  0  0  0  0  0  0  0  0
   -3.2860    9.6220   -7.5080 C   0  0  0  0  0  0  0  0  0  0  0  0
   -2.5720    8.8220   -7.3140 H   0  0  0  0  0  0  0  0  0  0  0  0
   -3.3140    5.0230  -13.0570 N   0  0  0  0  0  2  0  0  0  0  0  0
   -4.1400    5.6150  -12.8370 H   0  0  0  0  0  0  0  0  0  0  0  0
   -2.5170    4.4610  -11.9940 C   0  0  2  0  0  0  0  0  0  0  0  0
   -1.7250    3.8470  -12.4230 H   0  0  0  0  0  0  0  0  0  0  0  0
   -3.4380    3.6400  -11.1070 C   0  0  0  0  0  3  0  0  0  0  0  0
   -4.4710    4.1900  -10.6370 O   0  0  0  0  0  0  0  0  0  0  0  0
   -1.8540    5.5840  -11.1350 C   0  0  0  0  0  0  0  0  0  0  0  0
   -2.6490    6.2450  -10.7900 H   0  0  0  0  0  0  0  0  0  0  0  0
   -1.1450    4.9970   -9.9330 C   0  0  0  0  0  0  0  0  0  0  0  0
   -1.8650    4.4610   -9.3150 H   0  0  0  0  0  0  0  0  0  0  0  0
   -0.3700    4.3090  -10.2700 H   0  0  0  0  0  0  0  0  0  0  0  0
   -0.6920    5.8000   -9.3520 H   0  0  0  0  0  0  0  0  0  0  0  0
   -0.8790    6.3820  -11.9530 C   0  0  0  0  0  0  0  0  0  0  0  0
   -0.0980    5.7220  -12.3300 H   0  0  0  0  0  0  0  0  0  0  0  0
   -1.4020    6.8440  -12.7900 H   0  0  0  0  0  0  0  0  0  0  0  0
   -0.4320    7.1570  -11.3300 H   0  0  0  0  0  0  0  0  0  0  0  0
   -4.5210    2.0210   -7.7850 N   0  0  0  0  0  2  0  0  0  0  0  0
   -5.4600    2.1270   -8.2190 H   0  0  0  0  0  0  0  0  0  0  0  0
   -4.3760    2.2860   -6.3400 C   0  0  2  0  0  0  0  0  0  0  0  0
   -3.3700    1.9630   -6.0710 H   0  0  0  0  0  0  0  0  0  0  0  0
   -5.3740    1.4700   -5.5200 C   0  0  0  0  0  3  0  0  0  0  0  0
   -6.6090    1.7400   -5.5300 O   0  0  0  0  0  0  0  0  0  0  0  0
   -4.4620    3.8040   -5.9870 C   0  0  2  0  0  0  0  0  0  0  0  0
   -5.4400    4.1780   -6.2900 H   0  0  0  0  0  0  0  0  0  0  0  0
   -3.3750    4.5860   -6.7450 C   0  0  0  0  0  0  0  0  0  0  0  0
   -2.4260    4.4330   -6.2310 H   0  0  0  0  0  0  0  0  0  0  0  0
   -3.3090    4.1820   -7.7550 H   0  0  0  0  0  0  0  0  0  0  0  0
   -4.3050    4.0130   -4.4580 C   0  0  0  0  0  0  0  0  0  0  0  0
   -5.1000    3.4810   -3.9360 H   0  0  0  0  0  0  0  0  0  0  0  0
   -3.3370    3.6280   -4.1370 H   0  0  0  0  0  0  0  0  0  0  0  0
   -4.3670    5.0770   -4.2300 H   0  0  0  0  0  0  0  0  0  0  0  0
   -3.6210    6.0930   -6.8510 C   0  0  0  0  0  0  0  0  0  0  0  0
   -4.5590    6.2710   -7.3760 H   0  0  0  0  0  0  0  0  0  0  0  0
   -3.6760    6.5220   -5.8510 H   0  0  0  0  0  0  0  0  0  0  0  0
   -2.8020    6.5560   -7.4010 H   0  0  0  0  0  0  0  0  0  0  0  0
   -7.1030    4.9550  -11.2140 N   0  0  0  0  0  2  0  0  0  0  0  0
   -6.1220    4.6450  -11.0650 H   0  0  0  0  0  0  0  0  0  0  0  0
   -7.3690    6.3930  -11.2260 C   0  0  2  0  0  0  0  0  0  0  0  0
   -8.4260    6.5500  -11.4390 H   0  0  0  0  0  0  0  0  0  0  0  0
   -6.5510    7.1110  -12.3230 C   0  0  0  0  0  3  0  0  0  0  0  0
   -5.3670    6.8340  -12.4820 O   0  0  0  0  0  0  0  0  0  0  0  0
   -6.9990    6.9690   -9.8590 C   0  0  0  0  0  0  0  0  0  0  0  0
   -5.9460    6.7590   -9.6690 H   0  0  0  0  0  0  0  0  0  0  0  0
   -7.1550    8.0480   -9.8840 H   0  0  0  0  0  0  0  0  0  0  0  0
   -7.8100    6.3970   -8.7320 C   0  0  0  0  0  0  0  0  0  0  0  0
   -9.1120    6.7880   -8.4820 N   0  0  0  0  0  0  0  0  0  0  0  0
   -7.5200    5.4300   -7.8250 C   0  0  0  0  0  0  0  0  0  0  0  0
   -6.5730    4.9000   -7.7210 H   0  0  0  0  0  0  0  0  0  0  0  0
   -9.5840    6.0790   -7.4730 C   0  0  0  0  0  0  0  0  0  0  0  0
  -10.5840    6.1660   -7.0470 H   0  0  0  0  0  0  0  0  0  0  0  0
   -8.6430    5.2470   -7.0660 N   0  0  0  0  0  0  0  0  0  0  0  0
   -4.3430    9.9870  -13.8600 N   0  0  0  0  0  2  0  0  0  0  0  0
   -3.9430    9.2670  -14.4950 H   0  0  0  0  0  0  0  0  0  0  0  0
   -3.4660   11.0950  -13.4060 C   0  0  2  0  0  0  0  0  0  0  0  0
   -3.9980   11.6020  -12.6010 H   0  0  0  0  0  0  0  0  0  0  0  0
   -3.1980   12.0700  -14.5610 C   0  0  0  0  0  3  0  0  0  0  0  0
   -2.6940   11.6660  -15.6100 O   0  0  0  0  0  0  0  0  0  0  0  0
   -2.1230   10.5980  -12.8370 C   0  0  0  0  0  0  0  0  0  0  0  0
   -1.6160   10.0380  -13.6230 H   0  0  0  0  0  0  0  0  0  0  0  0
   -1.2160   11.7770  -12.4230 C   0  0  0  0  0  0  0  0  0  0  0  0
   -1.0140   12.4010  -13.2930 H   0  0  0  0  0  0  0  0  0  0  0  0
   -1.7190   12.3690  -11.6580 H   0  0  0  0  0  0  0  0  0  0  0  0
   -0.2780   11.3900  -12.0260 H   0  0  0  0  0  0  0  0  0  0  0  0
   -2.3600    9.6900  -11.6480 C   0  0  0  0  0  0  0  0  0  0  0  0
   -2.8940   10.2400  -10.8730 H   0  0  0  0  0  0  0  0  0  0  0  0
   -2.9540    8.8310  -11.9610 H   0  0  0  0  0  0  0  0  0  0  0  0
   -1.4020    9.3470  -11.2570 H   0  0  0  0  0  0  0  0  0  0  0  0
   10.6540   11.3050   -5.5760 N   0  0  0  0  0  2  0  0  0  0  0  0
   10.3920   12.2850   -5.8030 H   0  0  0  0  0  0  0  0  0  0  0  0
   10.0940   10.6720   -4.3490 C   0  0  2  0  0  0  0  0  0  0  0  0
   10.8680    9.9920   -3.9930 H   0  0  0  0  0  0  0  0  0  0  0  0
    8.8430    9.8410   -4.6350 C   0  0  0  0  0  0  0  0  0  0  0  0
    8.3760    9.1070   -3.7350 O   0  0  0  0  0  0  0  0  0  0  0  0
    9.8210   11.6790   -3.2540 C   0  0  0  0  0  0  0  0  0  0  0  0
   10.7510   12.1790   -2.9810 H   0  0  0  0  0  0  0  0  0  0  0  0
    9.1020   12.4160   -3.6110 H   0  0  0  0  0  0  0  0  0  0  0  0
    9.4140   11.1650   -2.3830 H   0  0  0  0  0  0  0  0  0  0  0  0
    8.3280    9.9240   -5.8760 N   0  0  0  0  0  0  0  0  0  0  0  0
    8.8050   10.5390   -6.5650 H   0  0  0  0  0  0  0  0  0  0  0  0
    7.1420    9.2010   -6.3060 C   0  0  2  0  0  0  0  0  0  0  0  0
    6.4000    9.3360   -5.5190 H   0  0  0  0  0  0  0  0  0  0  0  0
    7.4250    7.7530   -6.4980 C   0  0  0  0  0  0  0  0  0  0  0  0
    8.5700    7.2700   -6.4620 O   0  0  0  0  0  0  0  0  0  0  0  0
    6.6180    9.7450   -7.6390 C   0  0  0  0  0  0  0  0  0  0  0  0
    5.6190    9.3460   -7.8150 H   0  0  0  0  0  0  0  0  0  0  0  0
    7.2840    9.4210   -8.4390 H   0  0  0  0  0  0  0  0  0  0  0  0
    6.5530   11.1910   -7.6390 O   0  0  0  0  0  0  0  0  0  0  0  0
    6.2110   11.5050   -8.5140 H   0  0  0  0  0  0  0  0  0  0  0  0
    6.3550    7.0580   -6.8100 N   0  0  0  0  0  0  0  0  0  0  0  0
    5.4610    7.5640   -6.9720 H   0  0  0  0  0  0  0  0  0  0  0  0
    6.3700    5.6400   -6.9350 C   0  0  2  0  0  0  0  0  0  0  0  0
    7.1620    5.1570   -6.3640 H   0  0  0  0  0  0  0  0  0  0  0  0
    6.5790    5.3360   -8.4090 C   0  0  0  0  0  3  0  0  0  0  0  0
    6.0940    6.0730   -9.2600 O   0  0  0  0  0  0  0  0  0  0  0  0
    5.0220    5.1190   -6.4090 C   0  0  0  0  0  0  0  0  0  0  0  0
    4.2350    5.7010   -6.8870 H   0  0  0  0  0  0  0  0  0  0  0  0
    4.9330    4.0750   -6.7090 H   0  0  0  0  0  0  0  0  0  0  0  0
    4.7900    5.1880   -4.8740 C   0  0  0  0  0  0  0  0  0  0  0  0
    5.0100    6.2120   -4.5710 H   0  0  0  0  0  0  0  0  0  0  0  0
    3.3110    4.7880   -4.5700 C   0  0  0  0  0  0  0  0  0  0  0  0
    2.6380    5.4790   -5.0770 H   0  0  0  0  0  0  0  0  0  0  0  0
    3.1300    3.7740   -4.9260 H   0  0  0  0  0  0  0  0  0  0  0  0
    3.1370    4.8330   -3.4950 H   0  0  0  0  0  0  0  0  0  0  0  0
    5.7270    4.2640   -4.0560 C   0  0  0  0  0  0  0  0  0  0  0  0
    5.5710    3.2290   -4.3610 H   0  0  0  0  0  0  0  0  0  0  0  0
    6.7640    4.5460   -4.2400 H   0  0  0  0  0  0  0  0  0  0  0  0
    5.5030    4.3690   -2.9940 H   0  0  0  0  0  0  0  0  0  0  0  0
    5.3050    3.2970  -10.3550 N   0  0  0  0  0  2  0  0  0  0  0  0
    5.3190    3.2100   -9.3190 H   0  0  0  0  0  0  0  0  0  0  0  0
    4.1120    2.9140  -11.0930 C   0  0  2  0  0  0  0  0  0  0  0  0
    4.3770    2.2010  -11.8730 H   0  0  0  0  0  0  0  0  0  0  0  0
    3.5250    4.1710  -11.7290 C   0  0  0  0  0  0  0  0  0  0  0  0
    2.8290    4.0740  -12.7370 O   0  0  0  0  0  0  0  0  0  0  0  0
    3.0890    2.1810  -10.2000 C   0  0  0  0  0  0  0  0  0  0  0  0
    2.2390    1.8870  -10.8160 H   0  0  0  0  0  0  0  0  0  0  0  0
    3.5630    1.2900   -9.7890 H   0  0  0  0  0  0  0  0  0  0  0  0
    2.5850    3.0260   -9.0590 C   0  0  0  0  0  0  0  0  0  0  0  0
    3.2850    2.9380   -8.2280 H   0  0  0  0  0  0  0  0  0  0  0  0
    2.5440    4.0640   -9.3890 H   0  0  0  0  0  0  0  0  0  0  0  0
    1.2080    2.6210   -8.5730 C   0  0  0  0  0  0  0  0  0  0  0  0
    0.7530    3.4710   -8.0650 H   0  0  0  0  0  0  0  0  0  0  0  0
    0.6000    2.3470   -9.4350 H   0  0  0  0  0  0  0  0  0  0  0  0
    1.2480    1.4500   -7.6160 C   0  0  0  0  0  0  0  0  0  0  0  0
    2.1300    1.5540   -6.9850 H   0  0  0  0  0  0  0  0  0  0  0  0
    1.3270    0.5330   -8.2000 H   0  0  0  0  0  0  0  0  0  0  0  0
    0.0220    1.3380   -6.7120 N   0  0  0  0  0  4  0  0  0  0  0  0
   -0.0630    2.2000   -6.1370 H   0  0  0  0  0  0  0  0  0  0  0  0
   -0.8300    1.2250   -7.2980 H   0  0  0  0  0  0  0  0  0  0  0  0
    0.1270    0.5130   -6.0880 H   0  0  0  0  0  0  0  0  0  0  0  0
    3.8150    5.3320  -11.1570 N   0  0  0  0  0  0  0  0  0  0  0  0
    4.3440    5.3460  -10.2620 H   0  0  0  0  0  0  0  0  0  0  0  0
    3.4060    6.5700  -11.7600 C   0  0  2  0  0  0  0  0  0  0  0  0
    2.6010    6.3500  -12.4610 H   0  0  0  0  0  0  0  0  0  0  0  0
    4.5830    7.2000  -12.5340 C   0  0  0  0  0  3  0  0  0  0  0  0
    4.3900    7.6850  -13.6440 O   0  0  0  0  0  0  0  0  0  0  0  0
    2.8330    7.5740  -10.6990 C   0  0  0  0  0  0  0  0  0  0  0  0
    1.7520    7.4410  -10.6510 H   0  0  0  0  0  0  0  0  0  0  0  0
    3.2710    7.3350   -9.7300 H   0  0  0  0  0  0  0  0  0  0  0  0
    3.1220    9.0400  -11.0060 C   0  0  0  0  0  0  0  0  0  0  0  0
    2.4190    9.6990  -11.9770 C   0  0  0  0  0  0  0  0  0  0  0  0
    1.6340    9.1740  -12.5200 H   0  0  0  0  0  0  0  0  0  0  0  0
    4.1580    9.7400  -10.3510 C   0  0  0  0  0  0  0  0  0  0  0  0
    4.7460    9.2230   -9.5930 H   0  0  0  0  0  0  0  0  0  0  0  0
    2.7000   11.0760  -12.2930 C   0  0  0  0  0  0  0  0  0  0  0  0
    2.1060   11.5870  -13.0510 H   0  0  0  0  0  0  0  0  0  0  0  0
    4.4620   11.1120  -10.6520 C   0  0  0  0  0  0  0  0  0  0  0  0
    5.2550   11.6380  -10.1200 H   0  0  0  0  0  0  0  0  0  0  0  0
    3.7150   11.7570  -11.6450 C   0  0  0  0  0  0  0  0  0  0  0  0
    3.9630   13.0750  -12.0290 O   0  0  0  0  0  0  0  0  0  0  0  0
    3.3260   13.3360  -12.7410 H   0  0  0  0  0  0  0  0  0  0  0  0
   10.9780    6.3050   -4.9480 N   0  0  0  0  0  2  0  0  0  0  0  0
   10.1880    5.9880   -5.5450 H   0  0  0  0  0  0  0  0  0  0  0  0
   10.7200    6.5580   -3.5270 C   0  0  2  0  0  0  0  0  0  0  0  0
   10.9690    7.6020   -3.3390 H   0  0  0  0  0  0  0  0  0  0  0  0
   11.6250    5.7190   -2.6400 C   0  0  0  0  0  3  0  0  0  0  0  0
   12.2670    6.2920   -1.7970 O   0  0  0  0  0  0  0  0  0  0  0  0
    9.2040    6.4100   -3.1540 C   0  0  0  0  0  0  0  0  0  0  0  0
    8.6640    7.2090   -3.6620 H   0  0  0  0  0  0  0  0  0  0  0  0
    8.8680    5.4460   -3.5360 H   0  0  0  0  0  0  0  0  0  0  0  0
    8.8060    6.4750   -1.6050 C   0  0  0  0  0  0  0  0  0  0  0  0
    9.0730    5.5270   -1.1380 H   0  0  0  0  0  0  0  0  0  0  0  0
    9.3690    7.2810   -1.1350 H   0  0  0  0  0  0  0  0  0  0  0  0
    7.2710    6.7340   -1.3710 C   0  0  0  0  0  0  0  0  0  0  0  0
    6.9860    6.4380   -0.3620 H   0  0  0  0  0  0  0  0  0  0  0  0
    6.6770    6.1740   -2.0940 H   0  0  0  0  0  0  0  0  0  0  0  0
    7.0740    8.1750   -1.5550 N   0  0  0  0  0  0  0  0  0  0  0  0
    7.9010    8.7810   -1.3810 H   0  0  0  0  0  0  0  0  0  0  0  0
    5.9530    8.7950   -1.9200 C   0  0  0  0  0  0  0  0  0  0  0  0
    4.8300    8.1290   -2.1550 N   0  0  0  0  0  4  0  0  0  0  0  0
    4.8090    7.0940   -2.0560 H   0  0  0  0  0  0  0  0  0  0  0  0
    3.9710    8.6420   -2.4390 H   0  0  0  0  0  0  0  0  0  0  0  0
    5.9750   10.1110   -2.0680 N   0  0  0  0  0  0  0  0  0  0  0  0
    6.8550   10.6390   -1.9000 H   0  0  0  0  0  0  0  0  0  0  0  0
    5.1120   10.6170   -2.3520 H   0  0  0  0  0  0  0  0  0  0  0  0
   11.6800   13.6970    2.1500 N   0  0  0  0  0  2  0  0  0  0  0  0
   11.0060   14.3750    1.7400 H   0  0  0  0  0  0  0  0  0  0  0  0
   12.3750   12.7460    1.2760 C   0  0  2  0  0  0  0  0  0  0  0  0
   12.5890   11.8420    1.8460 H   0  0  0  0  0  0  0  0  0  0  0  0
   13.6730   13.4000    0.7880 C   0  0  0  0  0  3  0  0  0  0  0  0
   13.6690   14.3550    0.0170 O   0  0  0  0  0  0  0  0  0  0  0  0
   11.5200   12.3200    0.0890 C   0  0  0  0  0  0  0  0  0  0  0  0
   11.3570   13.1990   -0.5350 H   0  0  0  0  0  0  0  0  0  0  0  0
   12.0810   11.5750   -0.4740 H   0  0  0  0  0  0  0  0  0  0  0  0
   10.1640   11.7270    0.4160 C   0  0  0  0  0  0  0  0  0  0  0  0
   10.0310   10.3500    0.7370 C   0  0  0  0  0  0  0  0  0  0  0  0
   10.9170    9.7150    0.7680 H   0  0  0  0  0  0  0  0  0  0  0  0
    9.0060   12.5450    0.3790 C   0  0  0  0  0  0  0  0  0  0  0  0
    9.1020   13.6000    0.1210 H   0  0  0  0  0  0  0  0  0  0  0  0
    8.7740    9.8000    1.0140 C   0  0  0  0  0  0  0  0  0  0  0  0
    8.6750    8.7420    1.2580 H   0  0  0  0  0  0  0  0  0  0  0  0
    7.7410   12.0170    0.6690 C   0  0  0  0  0  0  0  0  0  0  0  0
    6.8570   12.6550    0.6610 H   0  0  0  0  0  0  0  0  0  0  0  0
    7.6340   10.6360    0.9730 C   0  0  0  0  0  0  0  0  0  0  0  0
    6.3730   10.1120    1.2340 O   0  0  0  0  0  0  0  0  0  0  0  0
    6.4530    9.1450    1.4290 H   0  0  0  0  0  0  0  0  0  0  0  0
    6.8140   13.4770   -8.2220 H   0  0  0  0  0  0  0  0  0  0  0  0
   -8.7350    4.5970   -6.3320 H   0  0  0  0  0  0  0  0  0  0  0  0
  1  2  1  0
  1  3  1  0
  3  4  1  6
  3  5  1  0
  3  7  1  0
  5  6  2  0
  7  8  1  0
  7  9  1  0
  7 10  1  0
 10 11  2  0
 10 12  1  0
 12250  1  0
 13 14  1  0
 13 15  1  0
 15 16  1  6
 15 17  1  0
 15 19  1  0
 17 18  2  0
 17 24  1  0
 19 20  1  0
 19 21  1  0
 19 22  1  0
 22 23  1  0
 24 25  1  0
 24 26  1  0
 26 27  1  1
 26 28  1  0
 26 30  1  0
 28 29  2  0
 28 35  1  0
 30 31  1  0
 30 32  1  0
 30 33  1  0
 33 34  1  0
 35 36  1  0
 35 37  1  0
 37 38  1  6
 37 39  1  0
 37 41  1  0
 39 40  2  0
 41 42  1  0
 41 43  1  0
 41 44  1  0
 44 45  2  0
 44 47  1  0
 45 46  1  0
 45 49  1  0
 47 48  1  0
 47 51  2  0
 49 50  1  0
 49 53  2  0
 51 52  1  0
 51 53  1  0
 53 54  1  0
 55 56  1  0
 55 57  1  0
 57 58  1  6
 57 59  1  0
 57 61  1  0
 59 60  2  0
 61 62  1  0
 61 63  1  0
 61 67  1  0
 63 64  1  0
 63 65  1  0
 63 66  1  0
 67 68  1  0
 67 69  1  0
 67 70  1  0
 71 72  1  0
 71 73  1  0
 73 74  1  1
 73 75  1  0
 73 77  1  0
 75 76  2  0
 77 78  1  6
 77 79  1  0
 77 82  1  0
 79 80  1  0
 79 81  1  0
 79 86  1  0
 82 83  1  0
 82 84  1  0
 82 85  1  0
 86 87  1  0
 86 88  1  0
 86 89  1  0
 90 91  1  0
 90 92  1  0
 92 93  1  6
 92 94  1  0
 92 96  1  0
 94 95  2  0
 96 97  1  0
 96 98  1  0
 96 99  1  0
 99100  1  0
 99101  2  0
100103  2  0
101102  1  0
101105  1  0
103104  1  0
103105  1  0
105251  1  0
106107  1  0
106108  1  0
108109  1  1
108110  1  0
108112  1  0
110111  2  0
112113  1  0
112114  1  0
112118  1  0
114115  1  0
114116  1  0
114117  1  0
118119  1  0
118120  1  0
118121  1  0
122123  1  0
122124  1  0
124125  1  1
124126  1  0
124128  1  0
126127  2  0
126132  1  0
128129  1  0
128130  1  0
128131  1  0
132133  1  0
132134  1  0
134135  1  1
134136  1  0
134138  1  0
136137  2  0
136143  1  0
138139  1  0
138140  1  0
138141  1  0
141142  1  0
143144  1  0
143145  1  0
145146  1  1
145147  1  0
145149  1  0
147148  2  0
149150  1  0
149151  1  0
149152  1  0
152153  1  0
152154  1  0
152158  1  0
154155  1  0
154156  1  0
154157  1  0
158159  1  0
158160  1  0
158161  1  0
162163  1  0
162164  1  0
164165  1  6
164166  1  0
164168  1  0
166167  2  0
166184  1  0
168169  1  0
168170  1  0
168171  1  0
171172  1  0
171173  1  0
171174  1  0
174175  1  0
174176  1  0
174177  1  0
177178  1  0
177179  1  0
177180  1  0
180181  1  0
180182  1  0
180183  1  0
184185  1  0
184186  1  0
186187  1  6
186188  1  0
186190  1  0
188189  2  0
190191  1  0
190192  1  0
190193  1  0
193194  2  0
193196  1  0
194195  1  0
194198  1  0
196197  1  0
196200  2  0
198199  1  0
198202  2  0
200201  1  0
200202  1  0
202203  1  0
203204  1  0
205206  1  0
205207  1  0
207208  1  6
207209  1  0
207211  1  0
209210  2  0
211212  1  0
211213  1  0
211214  1  0
214215  1  0
214216  1  0
214217  1  0
217218  1  0
217219  1  0
217220  1  0
220221  1  0
220222  1  0
222223  2  0
222226  1  0
223224  1  0
223225  1  0
226227  1  0
226228  1  0
229230  1  0
229231  1  0
231232  1  1
231233  1  0
231235  1  0
233234  2  0
235236  1  0
235237  1  0
235238  1  0
238239  2  0
238241  1  0
239240  1  0
239243  1  0
241242  1  0
241245  2  0
243244  1  0
243247  2  0
245246  1  0
245247  1  0
247248  1  0
248249  1  0
M  RAD  8   1   2   5   2  13   2  39   2  55   2  59   2  71   2  75   2
M  RAD  8  90   2  94   2 106   2 110   2 122   2 147   2 162   2 188   2
M  CHG  2 180   1 223   1
M  RAD  4 205   2 209   2 229   2 233   2
M  END
$$$$

     RDKit          3D

251245  0  0  0  0  0  0  0  0999 V2000
    8.2390   15.7430  -10.2460 N   0  0  0  0  0  2  0  0  0  0  0  0
    8.4060   14.8450   -9.7480 H   0  0  0  0  0  0  0  0  0  0  0  0
    7.1270   16.5820   -9.8330 C   0  0  2  0  0  0  0  0  0  0  0  0
    6.5240   16.7530  -10.7240 H   0  0  0  0  0  0  0  0  0  0  0  0
    7.5010   17.9630   -9.3590 C   0  0  0  0  0  3  0  0  0  0  0  0
    8.3130   18.1090   -8.4540 O   0  0  0  0  0  0  0  0  0  0  0  0
    6.3630   15.8620   -8.7680 C   0  0  0  0  0  0  0  0  0  0  0  0
    7.0440   15.5910   -7.9610 H   0  0  0  0  0  0  0  0  0  0  0  0
    5.5850   16.5200   -8.3800 H   0  0  0  0  0  0  0  0  0  0  0  0
    5.7360   14.6350   -9.3040 C   0  0  0  0  0  0  0  0  0  0  0  0
    4.8520   14.7920  -10.1880 O   0  0  0  0  0  0  0  0  0  0  0  0
    6.1520   13.5130   -8.8840 O   0  0  0  0  0  0  0  0  0  0  0  0
    1.6580   16.8130  -11.9920 N   0  0  0  0  0  2  0  0  0  0  0  0
    2.3630   16.6600  -11.2430 H   0  0  0  0  0  0  0  0  0  0  0  0
    0.5750   15.8710  -12.1280 C   0  0  2  0  0  0  0  0  0  0  0  0
    0.1290   15.9910  -13.1150 H   0  0  0  0  0  0  0  0  0  0  0  0
   -0.5220   16.1130  -11.1130 C   0  0  0  0  0  0  0  0  0  0  0  0
   -0.2990   16.7340  -10.0760 O   0  0  0  0  0  0  0  0  0  0  0  0
    1.1300   14.4960  -11.9520 C   0  0  0  0  0  0  0  0  0  0  0  0
    0.3140   13.7740  -11.9180 H   0  0  0  0  0  0  0  0  0  0  0  0
    1.6970   14.4460  -11.0220 H   0  0  0  0  0  0  0  0  0  0  0  0
    1.9940   14.1960  -13.0610 O   0  0  0  0  0  0  0  0  0  0  0  0
    2.3660   13.2850  -12.9510 H   0  0  0  0  0  0  0  0  0  0  0  0
   -1.7070   15.5990  -11.3820 N   0  0  0  0  0  0  0  0  0  0  0  0
   -1.8300   15.0390  -12.2500 H   0  0  0  0  0  0  0  0  0  0  0  0
   -2.8500   15.7940  -10.4960 C   0  0  2  0  0  0  0  0  0  0  0  0
   -2.4940   15.6940   -9.4710 H   0  0  0  0  0  0  0  0  0  0  0  0
   -3.9360   14.7420  -10.7100 C   0  0  0  0  0  0  0  0  0  0  0  0
   -4.1170   14.2150  -11.8220 O   0  0  0  0  0  0  0  0  0  0  0  0
   -3.4310   17.1680  -10.7260 C   0  0  0  0  0  0  0  0  0  0  0  0
   -3.6970   17.2780  -11.7770 H   0  0  0  0  0  0  0  0  0  0  0  0
   -2.6920   17.9230  -10.4590 H   0  0  0  0  0  0  0  0  0  0  0  0
   -4.5930   17.3400   -9.9250 O   0  0  0  0  0  0  0  0  0  0  0  0
   -4.9690   18.2430  -10.0800 H   0  0  0  0  0  0  0  0  0  0  0  0
   -4.6520   14.4140   -9.6350 N   0  0  0  0  0  0  0  0  0  0  0  0
   -4.3590   14.7920   -8.7110 H   0  0  0  0  0  0  0  0  0  0  0  0
   -5.8320   13.5460   -9.6910 C   0  0  2  0  0  0  0  0  0  0  0  0
   -5.6450   12.7780  -10.4420 H   0  0  0  0  0  0  0  0  0  0  0  0
   -7.0770   14.3290  -10.1220 C   0  0  0  0  0  3  0  0  0  0  0  0
   -8.0250   13.7390  -10.5890 O   0  0  0  0  0  0  0  0  0  0  0  0
   -6.0610   12.8570   -8.3570 C   0  0  0  0  0  0  0  0  0  0  0  0
   -5.9730   13.6020   -7.5670 H   0  0  0  0  0  0  0  0  0  0  0  0
   -7.0700   12.4440   -8.3540 H   0  0  0  0  0  0  0  0  0  0  0  0
   -5.0730   11.7210   -8.0610 C   0  0  0  0  0  0  0  0  0  0  0  0
   -4.0720   11.8810   -7.1020 C   0  0  0  0  0  0  0  0  0  0  0  0
   -3.9860   12.8270   -6.5670 H   0  0  0  0  0  0  0  0  0  0  0  0
   -5.1740   10.4980   -8.7080 C   0  0  0  0  0  0  0  0  0  0  0  0
   -5.9560   10.3530   -9.4530 H   0  0  0  0  0  0  0  0  0  0  0  0
   -3.1820   10.8480   -6.8190 C   0  0  0  0  0  0  0  0  0  0  0  0
   -2.4060   10.9870   -6.0660 H   0  0  0  0  0  0  0  0  0  0  0  0
   -4.2920    9.4420   -8.4250 C   0  0  0  0  0  0  0  0  0  0  0  0
   -4.4060    8.4830   -8.9310 H   0  0  0  0  0  0  0  0  0  0  0  0
   -3.2860    9.6220   -7.5080 C   0  0  0  0  0  0  0  0  0  0  0  0
   -2.5720    8.8220   -7.3140 H   0  0  0  0  0  0  0  0  0  0  0  0
   -3.3140    5.0230  -13.0570 N   0  0  0  0  0  2  0  0  0  0  0  0
   -4.1400    5.6150  -12.8370 H   0  0  0  0  0  0  0  0  0  0  0  0
   -2.5170    4.4610  -11.9940 C   0  0  2  0  0  0  0  0  0  0  0  0
   -1.7250    3.8470  -12.4230 H   0  0  0  0  0  0  0  0  0  0  0  0
   -3.4380    3.6400  -11.1070 C   0  0  0  0  0  3  0  0  0  0  0  0
   -4.4710    4.1900  -10.6370 O   0  0  0  0  0  0  0  0  0  0  0  0
   -1.8540    5.5840  -11.1350 C   0  0  0  0  0  0  0  0  0  0  0  0
   -2.6490    6.2450  -10.7900 H   0  0  0  0  0  0  0  0  0  0  0  0
   -1.1450    4.9970   -9.9330 C   0  0  0  0  0  0  0  0  0  0  0  0
   -1.8650    4.4610   -9.3150 H   0  0  0  0  0  0  0  0  0  0  0  0
   -0.3700    4.3090  -10.2700 H   0  0  0  0  0  0  0  0  0  0  0  0
   -0.6920    5.8000   -9.3520 H   0  0  0  0  0  0  0  0  0  0  0  0
   -0.8790    6.3820  -11.9530 C   0  0  0  0  0  0  0  0  0  0  0  0
   -0.0980    5.7220  -12.3300 H   0  0  0  0  0  0  0  0  0  0  0  0
   -1.4020    6.8440  -12.7900 H   0  0  0  0  0  0  0  0  0  0  0  0
   -0.4320    7.1570  -11.3300 H   0  0  0  0  0  0  0  0  0  0  0  0
   -4.5210    2.0210   -7.7850 N   0  0  0  0  0  2  0  0  0  0  0  0
   -5.4600    2.1270   -8.2190 H   0  0  0  0  0  0  0  0  0  0  0  0
   -4.3760    2.2860   -6.3400 C   0  0  2  0  0  0  0  0  0  0  0  0
   -3.3700    1.9630   -6.0710 H   0  0  0  0  0  0  0  0  0  0  0  0
   -5.3740    1.4700   -5.5200 C   0  0  0  0  0  3  0  0  0  0  0  0
   -6.6090    1.7400   -5.5300 O   0  0  0  0  0  0  0  0  0  0  0  0
   -4.4620    3.8040   -5.9870 C   0  0  2  0  0  0  0  0  0  0  0  0
   -5.4400    4.1780   -6.2900 H   0  0  0  0  0  0  0  0  0  0  0  0
   -3.3750    4.5860   -6.7450 C   0  0  0  0  0  0  0  0  0  0  0  0
   -2.4260    4.4330   -6.2310 H   0  0  0  0  0  0  0  0  0  0  0  0
   -3.3090    4.1820   -7.7550 H   0  0  0  0  0  0  0  0  0  0  0  0
   -4.3050    4.0130   -4.4580 C   0  0  0  0  0  0  0  0  0  0  0  0
   -5.1000    3.4810   -3.9360 H   0  0  0  0  0  0  0  0  0  0  0  0
   -3.3370    3.6280   -4.1370 H   0  0  0  0  0  0  0  0  0  0  0  0
   -4.3670    5.0770   -4.2300 H   0  0  0  0  0  0  0  0  0  0  0  0
   -3.6210    6.0930   -6.8510 C   0  0  0  0  0  0  0  0  0  0  0  0
   -4.5590    6.2710   -7.3760 H   0  0  0  0  0  0  0  0  0  0  0  0
   -3.6760    6.5220   -5.8510 H   0  0  0  0  0  0  0  0  0  0  0  0
   -2.8020    6.5560   -7.4010 H   0  0  0  0  0  0  0  0  0  0  0  0
   -7.1030    4.9550  -11.2140 N   0  0  0  0  0  2  0  0  0  0  0  0
   -6.1220    4.6450  -11.0650 H   0  0  0  0  0  0  0  0  0  0  0  0
   -7.3690    6.3930  -11.2260 C   0  0  2  0  0  0  0  0  0  0  0  0
   -8.4260    6.5500  -11.4390 H   0  0  0  0  0  0  0  0  0  0  0  0
   -6.5510    7.1110  -12.3230 C   0  0  0  0  0  3  0  0  0  0  0  0
   -5.3670    6.8340  -12.4820 O   0  0  0  0  0  0  0  0  0  0  0  0
   -6.9990    6.9690   -9.8590 C   0  0  0  0  0  0  0  0  0  0  0  0
   -5.9460    6.7590   -9.6690 H   0  0  0  0  0  0  0  0  0  0  0  0
   -7.1550    8.0480   -9.8840 H   0  0  0  0  0  0  0  0  0  0  0  0
   -7.8100    6.3970   -8.7320 C   0  0  0  0  0  0  0  0  0  0  0  0
   -9.1120    6.7880   -8.4820 N   0  0  0  0  0  0  0  0  0  0  0  0
   -7.5200    5.4300   -7.8250 C   0  0  0  0  0  0  0  0  0  0  0  0
   -6.5730    4.9000   -7.7210 H   0  0  0  0  0  0  0  0  0  0  0  0
   -9.5840    6.0790   -7.4730 C   0  0  0  0  0  0  0  0  0  0  0  0
  -10.5840    6.1660   -7.0470 H   0  0  0  0  0  0  0  0  0  0  0  0
   -8.6430    5.2470   -7.0660 N   0  0  0  0  0  0  0  0  0  0  0  0
   -4.3430    9.9870  -13.8600 N   0  0  0  0  0  2  0  0  0  0  0  0
   -3.9430    9.2670  -14.4950 H   0  0  0  0  0  0  0  0  0  0  0  0
   -3.4660   11.0950  -13.4060 C   0  0  2  0  0  0  0  0  0  0  0  0
   -3.9980   11.6020  -12.6010 H   0  0  0  0  0  0  0  0  0  0  0  0
   -3.1980   12.0700  -14.5610 C   0  0  0  0  0  3  0  0  0  0  0  0
   -2.6940   11.6660  -15.6100 O   0  0  0  0  0  0  0  0  0  0  0  0
   -2.1230   10.5980  -12.8370 C   0  0  0  0  0  0  0  0  0  0  0  0
   -1.6160   10.0380  -13.6230 H   0  0  0  0  0  0  0  0  0  0  0  0
   -1.2160   11.7770  -12.4230 C   0  0  0  0  0  0  0  0  0  0  0  0
   -1.0140   12.4010  -13.2930 H   0  0  0  0  0  0  0  0  0  0  0  0
   -1.7190   12.3690  -11.6580 H   0  0  0  0  0  0  0  0  0  0  0  0
   -0.2780   11.3900  -12.0260 H   0  0  0  0  0  0  0  0  0  0  0  0
   -2.3600    9.6900  -11.6480 C   0  0  0  0  0  0  0  0  0  0  0  0
   -2.8940   10.2400  -10.8730 H   0  0  0  0  0  0  0  0  0  0  0  0
   -2.9540    8.8310  -11.9610 H   0  0  0  0  0  0  0  0  0  0  0  0
   -1.4020    9.3470  -11.2570 H   0  0  0  0  0  0  0  0  0  0  0  0
   10.6540   11.3050   -5.5760 N   0  0  0  0  0  2  0  0  0  0  0  0
   10.3920   12.2850   -5.8030 H   0  0  0  0  0  0  0  0  0  0  0  0
   10.0940   10.6720   -4.3490 C   0  0  2  0  0  0  0  0  0  0  0  0
   10.8680    9.9920   -3.9930 H   0  0  0  0  0  0  0  0  0  0  0  0
    8.8430    9.8410   -4.6350 C   0  0  0  0  0  0  0  0  0  0  0  0
    8.3760    9.1070   -3.7350 O   0  0  0  0  0  0  0  0  0  0  0  0
    9.8210   11.6790   -3.2540 C   0  0  0  0  0  0  0  0  0  0  0  0
   10.7510   12.1790   -2.9810 H   0  0  0  0  0  0  0  0  0  0  0  0
    9.1020   12.4160   -3.6110 H   0  0  0  0  0  0  0  0  0  0  0  0
    9.4140   11.1650   -2.3830 H   0  0  0  0  0  0  0  0  0  0  0  0
    8.3280    9.9240   -5.8760 N   0  0  0  0  0  0  0  0  0  0  0  0
    8.8050   10.5390   -6.5650 H   0  0  0  0  0  0  0  0  0  0  0  0
    7.1420    9.2010   -6.3060 C   0  0  2  0  0  0  0  0  0  0  0  0
    6.4000    9.3360   -5.5190 H   0  0  0  0  0  0  0  0  0  0  0  0
    7.4250    7.7530   -6.4980 C   0  0  0  0  0  0  0  0  0  0  0  0
    8.5700    7.2700   -6.4620 O   0  0  0  0  0  0  0  0  0  0  0  0
    6.6180    9.7450   -7.6390 C   0  0  0  0  0  0  0  0  0  0  0  0
    5.6190    9.3460   -7.8150 H   0  0  0  0  0  0  0  0  0  0  0  0
    7.2840    9.4210   -8.4390 H   0  0  0  0  0  0  0  0  0  0  0  0
    6.5530   11.1910   -7.6390 O   0  0  0  0  0  0  0  0  0  0  0  0
    6.2110   11.5050   -8.5140 H   0  0  0  0  0  0  0  0  0  0  0  0
    6.3550    7.0580   -6.8100 N   0  0  0  0  0  0  0  0  0  0  0  0
    5.4610    7.5640   -6.9720 H   0  0  0  0  0  0  0  0  0  0  0  0
    6.3700    5.6400   -6.9350 C   0  0  2  0  0  0  0  0  0  0  0  0
    7.1620    5.1570   -6.3640 H   0  0  0  0  0  0  0  0  0  0  0  0
    6.5790    5.3360   -8.4090 C   0  0  0  0  0  3  0  0  0  0  0  0
    6.0940    6.0730   -9.2600 O   0  0  0  0  0  0  0  0  0  0  0  0
    5.0220    5.1190   -6.4090 C   0  0  0  0  0  0  0  0  0  0  0  0
    4.2350    5.7010   -6.8870 H   0  0  0  0  0  0  0  0  0  0  0  0
    4.9330    4.0750   -6.7090 H   0  0  0  0  0  0  0  0  0  0  0  0
    4.7900    5.1880   -4.8740 C   0  0  0  0  0  0  0  0  0  0  0  0
    5.0100    6.2120   -4.5710 H   0  0  0  0  0  0  0  0  0  0  0  0
    3.3110    4.7880   -4.5700 C   0  0  0  0  0  0  0  0  0  0  0  0
    2.6380    5.4790   -5.0770 H   0  0  0  0  0  0  0  0  0  0  0  0
    3.1300    3.7740   -4.9260 H   0  0  0  0  0  0  0  0  0  0  0  0
    3.1370    4.8330   -3.4950 H   0  0  0  0  0  0  0  0  0  0  0  0
    5.7270    4.2640   -4.0560 C   0  0  0  0  0  0  0  0  0  0  0  0
    5.5710    3.2290   -4.3610 H   0  0  0  0  0  0  0  0  0  0  0  0
    6.7640    4.5460   -4.2400 H   0  0  0  0  0  0  0  0  0  0  0  0
    5.5030    4.3690   -2.9940 H   0  0  0  0  0  0  0  0  0  0  0  0
    5.3050    3.2970  -10.3550 N   0  0  0  0  0  2  0  0  0  0  0  0
    5.3190    3.2100   -9.3190 H   0  0  0  0  0  0  0  0  0  0  0  0
    4.1120    2.9140  -11.0930 C   0  0  2  0  0  0  0  0  0  0  0  0
    4.3770    2.2010  -11.8730 H   0  0  0  0  0  0  0  0  0  0  0  0
    3.5250    4.1710  -11.7290 C   0  0  0  0  0  0  0  0  0  0  0  0
    2.8290    4.0740  -12.7370 O   0  0  0  0  0  0  0  0  0  0  0  0
    3.0890    2.1810  -10.2000 C   0  0  0  0  0  0  0  0  0  0  0  0
    2.2390    1.8870  -10.8160 H   0  0  0  0  0  0  0  0  0  0  0  0
    3.5630    1.2900   -9.7890 H   0  0  0  0  0  0  0  0  0  0  0  0
    2.5850    3.0260   -9.0590 C   0  0  0  0  0  0  0  0  0  0  0  0
    3.2850    2.9380   -8.2280 H   0  0  0  0  0  0  0  0  0  0  0  0
    2.5440    4.0640   -9.3890 H   0  0  0  0  0  0  0  0  0  0  0  0
    1.2080    2.6210   -8.5730 C   0  0  0  0  0  0  0  0  0  0  0  0
    0.7530    3.4710   -8.0650 H   0  0  0  0  0  0  0  0  0  0  0  0
    0.6000    2.3470   -9.4350 H   0  0  0  0  0  0  0  0  0  0  0  0
    1.2480    1.4500   -7.6160 C   0  0  0  0  0  0  0  0  0  0  0  0
    2.1300    1.5540   -6.9850 H   0  0  0  0  0  0  0  0  0  0  0  0
    1.3270    0.5330   -8.2000 H   0  0  0  0  0  0  0  0  0  0  0  0
    0.0220    1.3380   -6.7120 N   0  0  0  0  0  4  0  0  0  0  0  0
   -0.0630    2.2000   -6.1370 H   0  0  0  0  0  0  0  0  0  0  0  0
   -0.8300    1.2250   -7.2980 H   0  0  0  0  0  0  0  0  0  0  0  0
    0.1270    0.5130   -6.0880 H   0  0  0  0  0  0  0  0  0  0  0  0
    3.8150    5.3320  -11.1570 N   0  0  0  0  0  0  0  0  0  0  0  0
    4.3440    5.3460  -10.2620 H   0  0  0  0  0  0  0  0  0  0  0  0
    3.4060    6.5700  -11.7600 C   0  0  2  0  0  0  0  0  0  0  0  0
    2.6010    6.3500  -12.4610 H   0  0  0  0  0  0  0  0  0  0  0  0
    4.5830    7.2000  -12.5340 C   0  0  0  0  0  3  0  0  0  0  0  0
    4.3900    7.6850  -13.6440 O   0  0  0  0  0  0  0  0  0  0  0  0
    2.8330    7.5740  -10.6990 C   0  0  0  0  0  0  0  0  0  0  0  0
    1.7520    7.4410  -10.6510 H   0  0  0  0  0  0  0  0  0  0  0  0
    3.2710    7.3350   -9.7300 H   0  0  0  0  0  0  0  0  0  0  0  0
    3.1220    9.0400  -11.0060 C   0  0  0  0  0  0  0  0  0  0  0  0
    2.4190    9.6990  -11.9770 C   0  0  0  0  0  0  0  0  0  0  0  0
    1.6340    9.1740  -12.5200 H   0  0  0  0  0  0  0  0  0  0  0  0
    4.1580    9.7400  -10.3510 C   0  0  0  0  0  0  0  0  0  0  0  0
    4.7460    9.2230   -9.5930 H   0  0  0  0  0  0  0  0  0  0  0  0
    2.7000   11.0760  -12.2930 C   0  0  0  0  0  0  0  0  0  0  0  0
    2.1060   11.5870  -13.0510 H   0  0  0  0  0  0  0  0  0  0  0  0
    4.4620   11.1120  -10.6520 C   0  0  0  0  0  0  0  0  0  0  0  0
    5.2550   11.6380  -10.1200 H   0  0  0  0  0  0  0  0  0  0  0  0
    3.7150   11.7570  -11.6450 C   0  0  0  0  0  0  0  0  0  0  0  0
    3.9630   13.0750  -12.0290 O   0  0  0  0  0  0  0  0  0  0  0  0
    3.3260   13.3360  -12.7410 H   0  0  0  0  0  0  0  0  0  0  0  0
   10.9780    6.3050   -4.9480 N   0  0  0  0  0  2  0  0  0  0  0  0
   10.1880    5.9880   -5.5450 H   0  0  0  0  0  0  0  0  0  0  0  0
   10.7200    6.5580   -3.5270 C   0  0  2  0  0  0  0  0  0  0  0  0
   10.9690    7.6020   -3.3390 H   0  0  0  0  0  0  0  0  0  0  0  0
   11.6250    5.7190   -2.6400 C   0  0  0  0  0  3  0  0  0  0  0  0
   12.2670    6.2920   -1.7970 O   0  0  0  0  0  0  0  0  0  0  0  0
    9.2040    6.4100   -3.1540 C   0  0  0  0  0  0  0  0  0  0  0  0
    8.6640    7.2090   -3.6620 H   0  0  0  0  0  0  0  0  0  0  0  0
    8.8680    5.4460   -3.5360 H   0  0  0  0  0  0  0  0  0  0  0  0
    8.8060    6.4750   -1.6050 C   0  0  0  0  0  0  0  0  0  0  0  0
    9.0730    5.5270   -1.1380 H   0  0  0  0  0  0  0  0  0  0  0  0
    9.3690    7.2810   -1.1350 H   0  0  0  0  0  0  0  0  0  0  0  0
    7.2710    6.7340   -1.3710 C   0  0  0  0  0  0  0  0  0  0  0  0
    6.9860    6.4380   -0.3620 H   0  0  0  0  0  0  0  0  0  0  0  0
    6.6770    6.1740   -2.0940 H   0  0  0  0  0  0  0  0  0  0  0  0
    7.0740    8.1750   -1.5550 N   0  0  0  0  0  0  0  0  0  0  0  0
    7.9010    8.7810   -1.3810 H   0  0  0  0  0  0  0  0  0  0  0  0
    5.9530    8.7950   -1.9200 C   0  0  0  0  0  0  0  0  0  0  0  0
    4.8300    8.1290   -2.1550 N   0  0  0  0  0  4  0  0  0  0  0  0
    4.8090    7.0940   -2.0560 H   0  0  0  0  0  0  0  0  0  0  0  0
    3.9710    8.6420   -2.4390 H   0  0  0  0  0  0  0  0  0  0  0  0
    5.9750   10.1110   -2.0680 N   0  0  0  0  0  0  0  0  0  0  0  0
    6.8550   10.6390   -1.9000 H   0  0  0  0  0  0  0  0  0  0  0  0
    5.1120   10.6170   -2.3520 H   0  0  0  0  0  0  0  0  0  0  0  0
   11.6800   13.6970    2.1500 N   0  0  0  0  0  2  0  0  0  0  0  0
   11.0060   14.3750    1.7400 H   0  0  0  0  0  0  0  0  0  0  0  0
   12.3750   12.7460    1.2760 C   0  0  2  0  0  0  0  0  0  0  0  0
   12.5890   11.8420    1.8460 H   0  0  0  0  0  0  0  0  0  0  0  0
   13.6730   13.4000    0.7880 C   0  0  0  0  0  3  0  0  0  0  0  0
   13.6690   14.3550    0.0170 O   0  0  0  0  0  0  0  0  0  0  0  0
   11.5200   12.3200    0.0890 C   0  0  0  0  0  0  0  0  0  0  0  0
   11.3570   13.1990   -0.5350 H   0  0  0  0  0  0  0  0  0  0  0  0
   12.0810   11.5750   -0.4740 H   0  0  0  0  0  0  0  0  0  0  0  0
   10.1640   11.7270    0.4160 C   0  0  0  0  0  0  0  0  0  0  0  0
   10.0310   10.3500    0.7370 C   0  0  0  0  0  0  0  0  0  0  0  0
   10.9170    9.7150    0.7680 H   0  0  0  0  0  0  0  0  0  0  0  0
    9.0060   12.5450    0.3790 C   0  0  0  0  0  0  0  0  0  0  0  0
    9.1020   13.6000    0.1210 H   0  0  0  0  0  0  0  0  0  0  0  0
    8.7740    9.8000    1.0140 C   0  0  0  0  0  0  0  0  0  0  0  0
    8.6750    8.7420    1.2580 H   0  0  0  0  0  0  0  0  0  0  0  0
    7.7410   12.0170    0.6690 C   0  0  0  0  0  0  0  0  0  0  0  0
    6.8570   12.6550    0.6610 H   0  0  0  0  0  0  0  0  0  0  0  0
    7.6340   10.6360    0.9730 C   0  0  0  0  0  0  0  0  0  0  0  0
    6.3730   10.1120    1.2340 O   0  0  0  0  0  0  0  0  0  0  0  0
    6.4530    9.1450    1.4290 H   0  0  0  0  0  0  0  0  0  0  0  0
    6.8140   13.4770   -8.2220 H   0  0  0  0  0  0  0  0  0  0  0  0
   -8.7350    4.5970   -6.3320 H   0  0  0  0  0  0  0  0  0  0  0  0
  1  2  1  0
  1  3  1  0
  3  4  1  6
  3  5  1  0
  3  7  1  0
  5  6  2  0
  7  8  1  0
  7  9  1  0
  7 10  1  0
 10 11  2  0
 10 12  1  0
 12250  1  0
 13 14  1  0
 13 15  1  0
 15 16  1  6
 15 17  1  0
 15 19  1  0
 17 18  2  0
 17 24  1  0
 19 20  1  0
 19 21  1  0
 19 22  1  0
 22 23  1  0
 24 25  1  0
 24 26  1  0
 26 27  1  1
 26 28  1  0
 26 30  1  0
 28 29  2  0
 28 35  1  0
 30 31  1  0
 30 32  1  0
 30 33  1  0
 33 34  1  0
 35 36  1  0
 35 37  1  0
 37 38  1  6
 37 39  1  0
 37 41  1  0
 39 40  2  0
 41 42  1  0
 41 43  1  0
 41 44  1  0
 44 45  2  0
 44 47  1  0
 45 46  1  0
 45 49  1  0
 47 48  1  0
 47 51  2  0
 49 50  1  0
 49 53  2  0
 51 52  1  0
 51 53  1  0
 53 54  1  0
 55 56  1  0
 55 57  1  0
 57 58  1  6
 57 59  1  0
 57 61  1  0
 59 60  2  0
 61 62  1  0
 61 63  1  0
 61 67  1  0
 63 64  1  0
 63 65  1  0
 63 66  1  0
 67 68  1  0
 67 69  1  0
 67 70  1  0
 71 72  1  0
 71 73  1  0
 73 74  1  1
 73 75  1  0
 73 77  1  0
 75 76  2  0
 77 78  1  6
 77 79  1  0
 77 82  1  0
 79 80  1  0
 79 81  1  0
 79 86  1  0
 82 83  1  0
 82 84  1  0
 82 85  1  0
 86 87  1  0
 86 88  1  0
 86 89  1  0
 90 91  1  0
 90 92  1  0
 92 93  1  6
 92 94  1  0
 92 96  1  0
 94 95  2  0
 96 97  1  0
 96 98  1  0
 96 99  1  0
 99100  1  0
 99101  2  0
100103  2  0
101102  1  0
101105  1  0
103104  1  0
103105  1  0
105251  1  0
106107  1  0
106108  1  0
108109  1  1
108110  1  0
108112  1  0
110111  2  0
112113  1  0
112114  1  0
112118  1  0
114115  1  0
114116  1  0
114117  1  0
118119  1  0
118120  1  0
118121  1  0
122123  1  0
122124  1  0
124125  1  1
124126  1  0
124128  1  0
126127  2  0
126132  1  0
128129  1  0
128130  1  0
128131  1  0
132133  1  0
132134  1  0
134135  1  1
134136  1  0
134138  1  0
136137  2  0
136143  1  0
138139  1  0
138140  1  0
138141  1  0
141142  1  0
143144  1  0
143145  1  0
145146  1  1
145147  1  0
145149  1  0
147148  2  0
149150  1  0
149151  1  0
149152  1  0
152153  1  0
152154  1  0
152158  1  0
154155  1  0
154156  1  0
154157  1  0
158159  1  0
158160  1  0
158161  1  0
162163  1  0
162164  1  0
164165  1  6
164166  1  0
164168  1  0
166167  2  0
166184  1  0
168169  1  0
168170  1  0
168171  1  0
171172  1  0
171173  1  0
171174  1  0
174175  1  0
174176  1  0
174177  1  0
177178  1  0
177179  1  0
177180  1  0
180181  1  0
180182  1  0
180183  1  0
184185  1  0
184186  1  0
186187  1  6
186188  1  0
186190  1  0
188189  2  0
190191  1  0
190192  1  0
190193  1  0
193194  2  0
193196  1  0
194195  1  0
194198  1  0
196197  1  0
196200  2  0
198199  1  0
198202  2  0
200201  1  0
200202  1  0
202203  1  0
203204  1  0
205206  1  0
205207  1  0
207208  1  6
207209  1  0
207211  1  0
209210  2  0
211212  1  0
211213  1  0
211214  1  0
214215  1  0
214216  1  0
214217  1  0
217218  1  0
217219  1  0
217220  1  0
220221  1  0
220222  1  0
222223  2  0
222226  1  0
223224  1  0
223225  1  0
226227  1  0
226228  1  0
229230  1  0
229231  1  0
231232  1  1
231233  1  0
231235  1  0
233234  2  0
235236  1  0
235237  1  0
235238  1  0
238239  2  0
238241  1  0
239240  1  0
239243  1  0
241242  1  0
241245  2  0
243244  1  0
243247  2  0
245246  1  0
245247  1  0
247248  1  0
248249  1  0
M  RAD  8   1   2   5   2  13   2  39   2  55   2  59   2  71   2  75   2
M  RAD  8  90   2  94   2 106   2 110   2 122   2 147   2 162   2 188   2
M  CHG  2 180   1 223   1
M  RAD  4 205   2 209   2 229   2 233   2
M  END
$$$$

     RDKit          3D

251245  0  0  0  0  0  0  0  0999 V2000
    8.2390   15.7430  -10.2460 N   0  0  0  0  0  2  0  0  0  0  0  0
    8.4060   14.8450   -9.7480 H   0  0  0  0  0  0  0  0  0  0  0  0
    7.1270   16.5820   -9.8330 C   0  0  2  0  0  0  0  0  0  0  0  0
    6.5240   16.7530  -10.7240 H   0  0  0  0  0  0  0  0  0  0  0  0
    7.5010   17.9630   -9.3590 C   0  0  0  0  0  3  0  0  0  0  0  0
    8.3130   18.1090   -8.4540 O   0  0  0  0  0  0  0  0  0  0  0  0
    6.3630   15.8620   -8.7680 C   0  0  0  0  0  0  0  0  0  0  0  0
    7.0440   15.5910   -7.9610 H   0  0  0  0  0  0  0  0  0  0  0  0
    5.5850   16.5200   -8.3800 H   0  0  0  0  0  0  0  0  0  0  0  0
    5.7360   14.6350   -9.3040 C   0  0  0  0  0  0  0  0  0  0  0  0
    4.8520   14.7920  -10.1880 O   0  0  0  0  0  0  0  0  0  0  0  0
    6.1520   13.5130   -8.8840 O   0  0  0  0  0  0  0  0  0  0  0  0
    1.6580   16.8130  -11.9920 N   0  0  0  0  0  2  0  0  0  0  0  0
    2.3630   16.6600  -11.2430 H   0  0  0  0  0  0  0  0  0  0  0  0
    0.5750   15.8710  -12.1280 C   0  0  2  0  0  0  0  0  0  0  0  0
    0.1290   15.9910  -13.1150 H   0  0  0  0  0  0  0  0  0  0  0  0
   -0.5220   16.1130  -11.1130 C   0  0  0  0  0  0  0  0  0  0  0  0
   -0.2990   16.7340  -10.0760 O   0  0  0  0  0  0  0  0  0  0  0  0
    1.1300   14.4960  -11.9520 C   0  0  0  0  0  0  0  0  0  0  0  0
    0.3140   13.7740  -11.9180 H   0  0  0  0  0  0  0  0  0  0  0  0
    1.6970   14.4460  -11.0220 H   0  0  0  0  0  0  0  0  0  0  0  0
    1.9940   14.1960  -13.0610 O   0  0  0  0  0  0  0  0  0  0  0  0
    2.3660   13.2850  -12.9510 H   0  0  0  0  0  0  0  0  0  0  0  0
   -1.7070   15.5990  -11.3820 N   0  0  0  0  0  0  0  0  0  0  0  0
   -1.8300   15.0390  -12.2500 H   0  0  0  0  0  0  0  0  0  0  0  0
   -2.8500   15.7940  -10.4960 C   0  0  2  0  0  0  0  0  0  0  0  0
   -2.4940   15.6940   -9.4710 H   0  0  0  0  0  0  0  0  0  0  0  0
   -3.9360   14.7420  -10.7100 C   0  0  0  0  0  0  0  0  0  0  0  0
   -4.1170   14.2150  -11.8220 O   0  0  0  0  0  0  0  0  0  0  0  0
   -3.4310   17.1680  -10.7260 C   0  0  0  0  0  0  0  0  0  0  0  0
   -3.6970   17.2780  -11.7770 H   0  0  0  0  0  0  0  0  0  0  0  0
   -2.6920   17.9230  -10.4590 H   0  0  0  0  0  0  0  0  0  0  0  0
   -4.5930   17.3400   -9.9250 O   0  0  0  0  0  0  0  0  0  0  0  0
   -4.9690   18.2430  -10.0800 H   0  0  0  0  0  0  0  0  0  0  0  0
   -4.6520   14.4140   -9.6350 N   0  0  0  0  0  0  0  0  0  0  0  0
   -4.3590   14.7920   -8.7110 H   0  0  0  0  0  0  0  0  0  0  0  0
   -5.8320   13.5460   -9.6910 C   0  0  2  0  0  0  0  0  0  0  0  0
   -5.6450   12.7780  -10.4420 H   0  0  0  0  0  0  0  0  0  0  0  0
   -7.0770   14.3290  -10.1220 C   0  0  0  0  0  3  0  0  0  0  0  0
   -8.0250   13.7390  -10.5890 O   0  0  0  0  0  0  0  0  0  0  0  0
   -6.0610   12.8570   -8.3570 C   0  0  0  0  0  0  0  0  0  0  0  0
   -5.9730   13.6020   -7.5670 H   0  0  0  0  0  0  0  0  0  0  0  0
   -7.0700   12.4440   -8.3540 H   0  0  0  0  0  0  0  0  0  0  0  0
   -5.0730   11.7210   -8.0610 C   0  0  0  0  0  0  0  0  0  0  0  0
   -4.0720   11.8810   -7.1020 C   0  0  0  0  0  0  0  0  0  0  0  0
   -3.9860   12.8270   -6.5670 H   0  0  0  0  0  0  0  0  0  0  0  0
   -5.1740   10.4980   -8.7080 C   0  0  0  0  0  0  0  0  0  0  0  0
   -5.9560   10.3530   -9.4530 H   0  0  0  0  0  0  0  0  0  0  0  0
   -3.1820   10.8480   -6.8190 C   0  0  0  0  0  0  0  0  0  0  0  0
   -2.4060   10.9870   -6.0660 H   0  0  0  0  0  0  0  0  0  0  0  0
   -4.2920    9.4420   -8.4250 C   0  0  0  0  0  0  0  0  0  0  0  0
   -4.4060    8.4830   -8.9310 H   0  0  0  0  0  0  0  0  0  0  0  0
   -3.2860    9.6220   -7.5080 C   0  0  0  0  0  0  0  0  0  0  0  0
   -2.5720    8.8220   -7.3140 H   0  0  0  0  0  0  0  0  0  0  0  0
   -3.3140    5.0230  -13.0570 N   0  0  0  0  0  2  0  0  0  0  0  0
   -4.1400    5.6150  -12.8370 H   0  0  0  0  0  0  0  0  0  0  0  0
   -2.5170    4.4610  -11.9940 C   0  0  2  0  0  0  0  0  0  0  0  0
   -1.7250    3.8470  -12.4230 H   0  0  0  0  0  0  0  0  0  0  0  0
   -3.4380    3.6400  -11.1070 C   0  0  0  0  0  3  0  0  0  0  0  0
   -4.4710    4.1900  -10.6370 O   0  0  0  0  0  0  0  0  0  0  0  0
   -1.8540    5.5840  -11.1350 C   0  0  0  0  0  0  0  0  0  0  0  0
   -2.6490    6.2450  -10.7900 H   0  0  0  0  0  0  0  0  0  0  0  0
   -1.1450    4.9970   -9.9330 C   0  0  0  0  0  0  0  0  0  0  0  0
   -1.8650    4.4610   -9.3150 H   0  0  0  0  0  0  0  0  0  0  0  0
   -0.3700    4.3090  -10.2700 H   0  0  0  0  0  0  0  0  0  0  0  0
   -0.6920    5.8000   -9.3520 H   0  0  0  0  0  0  0  0  0  0  0  0
   -0.8790    6.3820  -11.9530 C   0  0  0  0  0  0  0  0  0  0  0  0
   -0.0980    5.7220  -12.3300 H   0  0  0  0  0  0  0  0  0  0  0  0
   -1.4020    6.8440  -12.7900 H   0  0  0  0  0  0  0  0  0  0  0  0
   -0.4320    7.1570  -11.3300 H   0  0  0  0  0  0  0  0  0  0  0  0
   -4.5210    2.0210   -7.7850 N   0  0  0  0  0  2  0  0  0  0  0  0
   -5.4600    2.1270   -8.2190 H   0  0  0  0  0  0  0  0  0  0  0  0
   -4.3760    2.2860   -6.3400 C   0  0  2  0  0  0  0  0  0  0  0  0
   -3.3700    1.9630   -6.0710 H   0  0  0  0  0  0  0  0  0  0  0  0
   -5.3740    1.4700   -5.5200 C   0  0  0  0  0  3  0  0  0  0  0  0
   -6.6090    1.7400   -5.5300 O   0  0  0  0  0  0  0  0  0  0  0  0
   -4.4620    3.8040   -5.9870 C   0  0  2  0  0  0  0  0  0  0  0  0
   -5.4400    4.1780   -6.2900 H   0  0  0  0  0  0  0  0  0  0  0  0
   -3.3750    4.5860   -6.7450 C   0  0  0  0  0  0  0  0  0  0  0  0
   -2.4260    4.4330   -6.2310 H   0  0  0  0  0  0  0  0  0  0  0  0
   -3.3090    4.1820   -7.7550 H   0  0  0  0  0  0  0  0  0  0  0  0
   -4.3050    4.0130   -4.4580 C   0  0  0  0  0  0  0  0  0  0  0  0
   -5.1000    3.4810   -3.9360 H   0  0  0  0  0  0  0  0  0  0  0  0
   -3.3370    3.6280   -4.1370 H   0  0  0  0  0  0  0  0  0  0  0  0
   -4.3670    5.0770   -4.2300 H   0  0  0  0  0  0  0  0  0  0  0  0
   -3.6210    6.0930   -6.8510 C   0  0  0  0  0  0  0  0  0  0  0  0
   -4.5590    6.2710   -7.3760 H   0  0  0  0  0  0  0  0  0  0  0  0
   -3.6760    6.5220   -5.8510 H   0  0  0  0  0  0  0  0  0  0  0  0
   -2.8020    6.5560   -7.4010 H   0  0  0  0  0  0  0  0  0  0  0  0
   -7.1030    4.9550  -11.2140 N   0  0  0  0  0  2  0  0  0  0  0  0
   -6.1220    4.6450  -11.0650 H   0  0  0  0  0  0  0  0  0  0  0  0
   -7.3690    6.3930  -11.2260 C   0  0  2  0  0  0  0  0  0  0  0  0
   -8.4260    6.5500  -11.4390 H   0  0  0  0  0  0  0  0  0  0  0  0
   -6.5510    7.1110  -12.3230 C   0  0  0  0  0  3  0  0  0  0  0  0
   -5.3670    6.8340  -12.4820 O   0  0  0  0  0  0  0  0  0  0  0  0
   -6.9990    6.9690   -9.8590 C   0  0  0  0  0  0  0  0  0  0  0  0
   -5.9460    6.7590   -9.6690 H   0  0  0  0  0  0  0  0  0  0  0  0
   -7.1550    8.0480   -9.8840 H   0  0  0  0  0  0  0  0  0  0  0  0
   -7.8100    6.3970   -8.7320 C   0  0  0  0  0  0  0  0  0  0  0  0
   -9.1120    6.7880   -8.4820 N   0  0  0  0  0  0  0  0  0  0  0  0
   -7.5200    5.4300   -7.8250 C   0  0  0  0  0  0  0  0  0  0  0  0
   -6.5730    4.9000   -7.7210 H   0  0  0  0  0  0  0  0  0  0  0  0
   -9.5840    6.0790   -7.4730 C   0  0  0  0  0  0  0  0  0  0  0  0
  -10.5840    6.1660   -7.0470 H   0  0  0  0  0  0  0  0  0  0  0  0
   -8.6430    5.2470   -7.0660 N   0  0  0  0  0  0  0  0  0  0  0  0
   -4.3430    9.9870  -13.8600 N   0  0  0  0  0  2  0  0  0  0  0  0
   -3.9430    9.2670  -14.4950 H   0  0  0  0  0  0  0  0  0  0  0  0
   -3.4660   11.0950  -13.4060 C   0  0  2  0  0  0  0  0  0  0  0  0
   -3.9980   11.6020  -12.6010 H   0  0  0  0  0  0  0  0  0  0  0  0
   -3.1980   12.0700  -14.5610 C   0  0  0  0  0  3  0  0  0  0  0  0
   -2.6940   11.6660  -15.6100 O   0  0  0  0  0  0  0  0  0  0  0  0
   -2.1230   10.5980  -12.8370 C   0  0  0  0  0  0  0  0  0  0  0  0
   -1.6160   10.0380  -13.6230 H   0  0  0  0  0  0  0  0  0  0  0  0
   -1.2160   11.7770  -12.4230 C   0  0  0  0  0  0  0  0  0  0  0  0
   -1.0140   12.4010  -13.2930 H   0  0  0  0  0  0  0  0  0  0  0  0
   -1.7190   12.3690  -11.6580 H   0  0  0  0  0  0  0  0  0  0  0  0
   -0.2780   11.3900  -12.0260 H   0  0  0  0  0  0  0  0  0  0  0  0
   -2.3600    9.6900  -11.6480 C   0  0  0  0  0  0  0  0  0  0  0  0
   -2.8940   10.2400  -10.8730 H   0  0  0  0  0  0  0  0  0  0  0  0
   -2.9540    8.8310  -11.9610 H   0  0  0  0  0  0  0  0  0  0  0  0
   -1.4020    9.3470  -11.2570 H   0  0  0  0  0  0  0  0  0  0  0  0
   10.6540   11.3050   -5.5760 N   0  0  0  0  0  2  0  0  0  0  0  0
   10.3920   12.2850   -5.8030 H   0  0  0  0  0  0  0  0  0  0  0  0
   10.0940   10.6720   -4.3490 C   0  0  2  0  0  0  0  0  0  0  0  0
   10.8680    9.9920   -3.9930 H   0  0  0  0  0  0  0  0  0  0  0  0
    8.8430    9.8410   -4.6350 C   0  0  0  0  0  0  0  0  0  0  0  0
    8.3760    9.1070   -3.7350 O   0  0  0  0  0  0  0  0  0  0  0  0
    9.8210   11.6790   -3.2540 C   0  0  0  0  0  0  0  0  0  0  0  0
   10.7510   12.1790   -2.9810 H   0  0  0  0  0  0  0  0  0  0  0  0
    9.1020   12.4160   -3.6110 H   0  0  0  0  0  0  0  0  0  0  0  0
    9.4140   11.1650   -2.3830 H   0  0  0  0  0  0  0  0  0  0  0  0
    8.3280    9.9240   -5.8760 N   0  0  0  0  0  0  0  0  0  0  0  0
    8.8050   10.5390   -6.5650 H   0  0  0  0  0  0  0  0  0  0  0  0
    7.1420    9.2010   -6.3060 C   0  0  2  0  0  0  0  0  0  0  0  0
    6.4000    9.3360   -5.5190 H   0  0  0  0  0  0  0  0  0  0  0  0
    7.4250    7.7530   -6.4980 C   0  0  0  0  0  0  0  0  0  0  0  0
    8.5700    7.2700   -6.4620 O   0  0  0  0  0  0  0  0  0  0  0  0
    6.6180    9.7450   -7.6390 C   0  0  0  0  0  0  0  0  0  0  0  0
    5.6190    9.3460   -7.8150 H   0  0  0  0  0  0  0  0  0  0  0  0
    7.2840    9.4210   -8.4390 H   0  0  0  0  0  0  0  0  0  0  0  0
    6.5530   11.1910   -7.6390 O   0  0  0  0  0  0  0  0  0  0  0  0
    6.2110   11.5050   -8.5140 H   0  0  0  0  0  0  0  0  0  0  0  0
    6.3550    7.0580   -6.8100 N   0  0  0  0  0  0  0  0  0  0  0  0
    5.4610    7.5640   -6.9720 H   0  0  0  0  0  0  0  0  0  0  0  0
    6.3700    5.6400   -6.9350 C   0  0  2  0  0  0  0  0  0  0  0  0
    7.1620    5.1570   -6.3640 H   0  0  0  0  0  0  0  0  0  0  0  0
    6.5790    5.3360   -8.4090 C   0  0  0  0  0  3  0  0  0  0  0  0
    6.0940    6.0730   -9.2600 O   0  0  0  0  0  0  0  0  0  0  0  0
    5.0220    5.1190   -6.4090 C   0  0  0  0  0  0  0  0  0  0  0  0
    4.2350    5.7010   -6.8870 H   0  0  0  0  0  0  0  0  0  0  0  0
    4.9330    4.0750   -6.7090 H   0  0  0  0  0  0  0  0  0  0  0  0
    4.7900    5.1880   -4.8740 C   0  0  0  0  0  0  0  0  0  0  0  0
    5.0100    6.2120   -4.5710 H   0  0  0  0  0  0  0  0  0  0  0  0
    3.3110    4.7880   -4.5700 C   0  0  0  0  0  0  0  0  0  0  0  0
    2.6380    5.4790   -5.0770 H   0  0  0  0  0  0  0  0  0  0  0  0
    3.1300    3.7740   -4.9260 H   0  0  0  0  0  0  0  0  0  0  0  0
    3.1370    4.8330   -3.4950 H   0  0  0  0  0  0  0  0  0  0  0  0
    5.7270    4.2640   -4.0560 C   0  0  0  0  0  0  0  0  0  0  0  0
    5.5710    3.2290   -4.3610 H   0  0  0  0  0  0  0  0  0  0  0  0
    6.7640    4.5460   -4.2400 H   0  0  0  0  0  0  0  0  0  0  0  0
    5.5030    4.3690   -2.9940 H   0  0  0  0  0  0  0  0  0  0  0  0
    5.3050    3.2970  -10.3550 N   0  0  0  0  0  2  0  0  0  0  0  0
    5.3190    3.2100   -9.3190 H   0  0  0  0  0  0  0  0  0  0  0  0
    4.1120    2.9140  -11.0930 C   0  0  2  0  0  0  0  0  0  0  0  0
    4.3770    2.2010  -11.8730 H   0  0  0  0  0  0  0  0  0  0  0  0
    3.5250    4.1710  -11.7290 C   0  0  0  0  0  0  0  0  0  0  0  0
    2.8290    4.0740  -12.7370 O   0  0  0  0  0  0  0  0  0  0  0  0
    3.0890    2.1810  -10.2000 C   0  0  0  0  0  0  0  0  0  0  0  0
    2.2390    1.8870  -10.8160 H   0  0  0  0  0  0  0  0  0  0  0  0
    3.5630    1.2900   -9.7890 H   0  0  0  0  0  0  0  0  0  0  0  0
    2.5850    3.0260   -9.0590 C   0  0  0  0  0  0  0  0  0  0  0  0
    3.2850    2.9380   -8.2280 H   0  0  0  0  0  0  0  0  0  0  0  0
    2.5440    4.0640   -9.3890 H   0  0  0  0  0  0  0  0  0  0  0  0
    1.2080    2.6210   -8.5730 C   0  0  0  0  0  0  0  0  0  0  0  0
    0.7530    3.4710   -8.0650 H   0  0  0  0  0  0  0  0  0  0  0  0
    0.6000    2.3470   -9.4350 H   0  0  0  0  0  0  0  0  0  0  0  0
    1.2480    1.4500   -7.6160 C   0  0  0  0  0  0  0  0  0  0  0  0
    2.1300    1.5540   -6.9850 H   0  0  0  0  0  0  0  0  0  0  0  0
    1.3270    0.5330   -8.2000 H   0  0  0  0  0  0  0  0  0  0  0  0
    0.0220    1.3380   -6.7120 N   0  0  0  0  0  4  0  0  0  0  0  0
   -0.0630    2.2000   -6.1370 H   0  0  0  0  0  0  0  0  0  0  0  0
   -0.8300    1.2250   -7.2980 H   0  0  0  0  0  0  0  0  0  0  0  0
    0.1270    0.5130   -6.0880 H   0  0  0  0  0  0  0  0  0  0  0  0
    3.8150    5.3320  -11.1570 N   0  0  0  0  0  0  0  0  0  0  0  0
    4.3440    5.3460  -10.2620 H   0  0  0  0  0  0  0  0  0  0  0  0
    3.4060    6.5700  -11.7600 C   0  0  2  0  0  0  0  0  0  0  0  0
    2.6010    6.3500  -12.4610 H   0  0  0  0  0  0  0  0  0  0  0  0
    4.5830    7.2000  -12.5340 C   0  0  0  0  0  3  0  0  0  0  0  0
    4.3900    7.6850  -13.6440 O   0  0  0  0  0  0  0  0  0  0  0  0
    2.8330    7.5740  -10.6990 C   0  0  0  0  0  0  0  0  0  0  0  0
    1.7520    7.4410  -10.6510 H   0  0  0  0  0  0  0  0  0  0  0  0
    3.2710    7.3350   -9.7300 H   0  0  0  0  0  0  0  0  0  0  0  0
    3.1220    9.0400  -11.0060 C   0  0  0  0  0  0  0  0  0  0  0  0
    2.4190    9.6990  -11.9770 C   0  0  0  0  0  0  0  0  0  0  0  0
    1.6340    9.1740  -12.5200 H   0  0  0  0  0  0  0  0  0  0  0  0
    4.1580    9.7400  -10.3510 C   0  0  0  0  0  0  0  0  0  0  0  0
    4.7460    9.2230   -9.5930 H   0  0  0  0  0  0  0  0  0  0  0  0
    2.7000   11.0760  -12.2930 C   0  0  0  0  0  0  0  0  0  0  0  0
    2.1060   11.5870  -13.0510 H   0  0  0  0  0  0  0  0  0  0  0  0
    4.4620   11.1120  -10.6520 C   0  0  0  0  0  0  0  0  0  0  0  0
    5.2550   11.6380  -10.1200 H   0  0  0  0  0  0  0  0  0  0  0  0
    3.7150   11.7570  -11.6450 C   0  0  0  0  0  0  0  0  0  0  0  0
    3.9630   13.0750  -12.0290 O   0  0  0  0  0  0  0  0  0  0  0  0
    3.3260   13.3360  -12.7410 H   0  0  0  0  0  0  0  0  0  0  0  0
   10.9780    6.3050   -4.9480 N   0  0  0  0  0  2  0  0  0  0  0  0
   10.1880    5.9880   -5.5450 H   0  0  0  0  0  0  0  0  0  0  0  0
   10.7200    6.5580   -3.5270 C   0  0  2  0  0  0  0  0  0  0  0  0
   10.9690    7.6020   -3.3390 H   0  0  0  0  0  0  0  0  0  0  0  0
   11.6250    5.7190   -2.6400 C   0  0  0  0  0  3  0  0  0  0  0  0
   12.2670    6.2920   -1.7970 O   0  0  0  0  0  0  0  0  0  0  0  0
    9.2040    6.4100   -3.1540 C   0  0  0  0  0  0  0  0  0  0  0  0
    8.6640    7.2090   -3.6620 H   0  0  0  0  0  0  0  0  0  0  0  0
    8.8680    5.4460   -3.5360 H   0  0  0  0  0  0  0  0  0  0  0  0
    8.8060    6.4750   -1.6050 C   0  0  0  0  0  0  0  0  0  0  0  0
    9.0730    5.5270   -1.1380 H   0  0  0  0  0  0  0  0  0  0  0  0
    9.3690    7.2810   -1.1350 H   0  0  0  0  0  0  0  0  0  0  0  0
    7.2710    6.7340   -1.3710 C   0  0  0  0  0  0  0  0  0  0  0  0
    6.9860    6.4380   -0.3620 H   0  0  0  0  0  0  0  0  0  0  0  0
    6.6770    6.1740   -2.0940 H   0  0  0  0  0  0  0  0  0  0  0  0
    7.0740    8.1750   -1.5550 N   0  0  0  0  0  0  0  0  0  0  0  0
    7.9010    8.7810   -1.3810 H   0  0  0  0  0  0  0  0  0  0  0  0
    5.9530    8.7950   -1.9200 C   0  0  0  0  0  0  0  0  0  0  0  0
    4.8300    8.1290   -2.1550 N   0  0  0  0  0  4  0  0  0  0  0  0
    4.8090    7.0940   -2.0560 H   0  0  0  0  0  0  0  0  0  0  0  0
    3.9710    8.6420   -2.4390 H   0  0  0  0  0  0  0  0  0  0  0  0
    5.9750   10.1110   -2.0680 N   0  0  0  0  0  0  0  0  0  0  0  0
    6.8550   10.6390   -1.9000 H   0  0  0  0  0  0  0  0  0  0  0  0
    5.1120   10.6170   -2.3520 H   0  0  0  0  0  0  0  0  0  0  0  0
   11.6800   13.6970    2.1500 N   0  0  0  0  0  2  0  0  0  0  0  0
   11.0060   14.3750    1.7400 H   0  0  0  0  0  0  0  0  0  0  0  0
   12.3750   12.7460    1.2760 C   0  0  2  0  0  0  0  0  0  0  0  0
   12.5890   11.8420    1.8460 H   0  0  0  0  0  0  0  0  0  0  0  0
   13.6730   13.4000    0.7880 C   0  0  0  0  0  3  0  0  0  0  0  0
   13.6690   14.3550    0.0170 O   0  0  0  0  0  0  0  0  0  0  0  0
   11.5200   12.3200    0.0890 C   0  0  0  0  0  0  0  0  0  0  0  0
   11.3570   13.1990   -0.5350 H   0  0  0  0  0  0  0  0  0  0  0  0
   12.0810   11.5750   -0.4740 H   0  0  0  0  0  0  0  0  0  0  0  0
   10.1640   11.7270    0.4160 C   0  0  0  0  0  0  0  0  0  0  0  0
   10.0310   10.3500    0.7370 C   0  0  0  0  0  0  0  0  0  0  0  0
   10.9170    9.7150    0.7680 H   0  0  0  0  0  0  0  0  0  0  0  0
    9.0060   12.5450    0.3790 C   0  0  0  0  0  0  0  0  0  0  0  0
    9.1020   13.6000    0.1210 H   0  0  0  0  0  0  0  0  0  0  0  0
    8.7740    9.8000    1.0140 C   0  0  0  0  0  0  0  0  0  0  0  0
    8.6750    8.7420    1.2580 H   0  0  0  0  0  0  0  0  0  0  0  0
    7.7410   12.0170    0.6690 C   0  0  0  0  0  0  0  0  0  0  0  0
    6.8570   12.6550    0.6610 H   0  0  0  0  0  0  0  0  0  0  0  0
    7.6340   10.6360    0.9730 C   0  0  0  0  0  0  0  0  0  0  0  0
    6.3730   10.1120    1.2340 O   0  0  0  0  0  0  0  0  0  0  0  0
    6.4530    9.1450    1.4290 H   0  0  0  0  0  0  0  0  0  0  0  0
    6.8140   13.4770   -8.2220 H   0  0  0  0  0  0  0  0  0  0  0  0
   -8.7350    4.5970   -6.3320 H   0  0  0  0  0  0  0  0  0  0  0  0
  1  2  1  0
  1  3  1  0
  3  4  1  6
  3  5  1  0
  3  7  1  0
  5  6  2  0
  7  8  1  0
  7  9  1  0
  7 10  1  0
 10 11  2  0
 10 12  1  0
 12250  1  0
 13 14  1  0
 13 15  1  0
 15 16  1  6
 15 17  1  0
 15 19  1  0
 17 18  2  0
 17 24  1  0
 19 20  1  0
 19 21  1  0
 19 22  1  0
 22 23  1  0
 24 25  1  0
 24 26  1  0
 26 27  1  1
 26 28  1  0
 26 30  1  0
 28 29  2  0
 28 35  1  0
 30 31  1  0
 30 32  1  0
 30 33  1  0
 33 34  1  0
 35 36  1  0
 35 37  1  0
 37 38  1  6
 37 39  1  0
 37 41  1  0
 39 40  2  0
 41 42  1  0
 41 43  1  0
 41 44  1  0
 44 45  2  0
 44 47  1  0
 45 46  1  0
 45 49  1  0
 47 48  1  0
 47 51  2  0
 49 50  1  0
 49 53  2  0
 51 52  1  0
 51 53  1  0
 53 54  1  0
 55 56  1  0
 55 57  1  0
 57 58  1  6
 57 59  1  0
 57 61  1  0
 59 60  2  0
 61 62  1  0
 61 63  1  0
 61 67  1  0
 63 64  1  0
 63 65  1  0
 63 66  1  0
 67 68  1  0
 67 69  1  0
 67 70  1  0
 71 72  1  0
 71 73  1  0
 73 74  1  1
 73 75  1  0
 73 77  1  0
 75 76  2  0
 77 78  1  6
 77 79  1  0
 77 82  1  0
 79 80  1  0
 79 81  1  0
 79 86  1  0
 82 83  1  0
 82 84  1  0
 82 85  1  0
 86 87  1  0
 86 88  1  0
 86 89  1  0
 90 91  1  0
 90 92  1  0
 92 93  1  6
 92 94  1  0
 92 96  1  0
 94 95  2  0
 96 97  1  0
 96 98  1  0
 96 99  1  0
 99100  1  0
 99101  2  0
100103  2  0
101102  1  0
101105  1  0
103104  1  0
103105  1  0
105251  1  0
106107  1  0
106108  1  0
108109  1  1
108110  1  0
108112  1  0
110111  2  0
112113  1  0
112114  1  0
112118  1  0
114115  1  0
114116  1  0
114117  1  0
118119  1  0
118120  1  0
118121  1  0
122123  1  0
122124  1  0
124125  1  1
124126  1  0
124128  1  0
126127  2  0
126132  1  0
128129  1  0
128130  1  0
128131  1  0
132133  1  0
132134  1  0
134135  1  1
134136  1  0
134138  1  0
136137  2  0
136143  1  0
138139  1  0
138140  1  0
138141  1  0
141142  1  0
143144  1  0
143145  1  0
145146  1  1
145147  1  0
145149  1  0
147148  2  0
149150  1  0
149151  1  0
149152  1  0
152153  1  0
152154  1  0
152158  1  0
154155  1  0
154156  1  0
154157  1  0
158159  1  0
158160  1  0
158161  1  0
162163  1  0
162164  1  0
164165  1  6
164166  1  0
164168  1  0
166167  2  0
166184  1  0
168169  1  0
168170  1  0
168171  1  0
171172  1  0
171173  1  0
171174  1  0
174175  1  0
174176  1  0
174177  1  0
177178  1  0
177179  1  0
177180  1  0
180181  1  0
180182  1  0
180183  1  0
184185  1  0
184186  1  0
186187  1  6
186188  1  0
186190  1  0
188189  2  0
190191  1  0
190192  1  0
190193  1  0
193194  2  0
193196  1  0
194195  1  0
194198  1  0
196197  1  0
196200  2  0
198199  1  0
198202  2  0
200201  1  0
200202  1  0
202203  1  0
203204  1  0
205206  1  0
205207  1  0
207208  1  6
207209  1  0
207211  1  0
209210  2  0
211212  1  0
211213  1  0
211214  1  0
214215  1  0
214216  1  0
214217  1  0
217218  1  0
217219  1  0
217220  1  0
220221  1  0
220222  1  0
222223  2  0
222226  1  0
223224  1  0
223225  1  0
226227  1  0
226228  1  0
229230  1  0
229231  1  0
231232  1  1
231233  1  0
231235  1  0
233234  2  0
235236  1  0
235237  1  0
235238  1  0
238239  2  0
238241  1  0
239240  1  0
239243  1  0
241242  1  0
241245  2  0
243244  1  0
243247  2  0
245246  1  0
245247  1  0
247248  1  0
248249  1  0
M  RAD  8   1   2   5   2  13   2  39   2  55   2  59   2  71   2  75   2
M  RAD  8  90   2  94   2 106   2 110   2 122   2 147   2 162   2 188   2
M  CHG  2 180   1 223   1
M  RAD  4 205   2 209   2 229   2 233   2
M  END
$$$$

     RDKit          3D

251245  0  0  0  0  0  0  0  0999 V2000
    8.2390   15.7430  -10.2460 N   0  0  0  0  0  2  0  0  0  0  0  0
    8.4060   14.8450   -9.7480 H   0  0  0  0  0  0  0  0  0  0  0  0
    7.1270   16.5820   -9.8330 C   0  0  2  0  0  0  0  0  0  0  0  0
    6.5240   16.7530  -10.7240 H   0  0  0  0  0  0  0  0  0  0  0  0
    7.5010   17.9630   -9.3590 C   0  0  0  0  0  3  0  0  0  0  0  0
    8.3130   18.1090   -8.4540 O   0  0  0  0  0  0  0  0  0  0  0  0
    6.3630   15.8620   -8.7680 C   0  0  0  0  0  0  0  0  0  0  0  0
    7.0440   15.5910   -7.9610 H   0  0  0  0  0  0  0  0  0  0  0  0
    5.5850   16.5200   -8.3800 H   0  0  0  0  0  0  0  0  0  0  0  0
    5.7360   14.6350   -9.3040 C   0  0  0  0  0  0  0  0  0  0  0  0
    4.8520   14.7920  -10.1880 O   0  0  0  0  0  0  0  0  0  0  0  0
    6.1520   13.5130   -8.8840 O   0  0  0  0  0  0  0  0  0  0  0  0
    1.6580   16.8130  -11.9920 N   0  0  0  0  0  2  0  0  0  0  0  0
    2.3630   16.6600  -11.2430 H   0  0  0  0  0  0  0  0  0  0  0  0
    0.5750   15.8710  -12.1280 C   0  0  2  0  0  0  0  0  0  0  0  0
    0.1290   15.9910  -13.1150 H   0  0  0  0  0  0  0  0  0  0  0  0
   -0.5220   16.1130  -11.1130 C   0  0  0  0  0  0  0  0  0  0  0  0
   -0.2990   16.7340  -10.0760 O   0  0  0  0  0  0  0  0  0  0  0  0
    1.1300   14.4960  -11.9520 C   0  0  0  0  0  0  0  0  0  0  0  0
    0.3140   13.7740  -11.9180 H   0  0  0  0  0  0  0  0  0  0  0  0
    1.6970   14.4460  -11.0220 H   0  0  0  0  0  0  0  0  0  0  0  0
    1.9940   14.1960  -13.0610 O   0  0  0  0  0  0  0  0  0  0  0  0
    2.3660   13.2850  -12.9510 H   0  0  0  0  0  0  0  0  0  0  0  0
   -1.7070   15.5990  -11.3820 N   0  0  0  0  0  0  0  0  0  0  0  0
   -1.8300   15.0390  -12.2500 H   0  0  0  0  0  0  0  0  0  0  0  0
   -2.8500   15.7940  -10.4960 C   0  0  2  0  0  0  0  0  0  0  0  0
   -2.4940   15.6940   -9.4710 H   0  0  0  0  0  0  0  0  0  0  0  0
   -3.9360   14.7420  -10.7100 C   0  0  0  0  0  0  0  0  0  0  0  0
   -4.1170   14.2150  -11.8220 O   0  0  0  0  0  0  0  0  0  0  0  0
   -3.4310   17.1680  -10.7260 C   0  0  0  0  0  0  0  0  0  0  0  0
   -3.6970   17.2780  -11.7770 H   0  0  0  0  0  0  0  0  0  0  0  0
   -2.6920   17.9230  -10.4590 H   0  0  0  0  0  0  0  0  0  0  0  0
   -4.5930   17.3400   -9.9250 O   0  0  0  0  0  0  0  0  0  0  0  0
   -4.9690   18.2430  -10.0800 H   0  0  0  0  0  0  0  0  0  0  0  0
   -4.6520   14.4140   -9.6350 N   0  0  0  0  0  0  0  0  0  0  0  0
   -4.3590   14.7920   -8.7110 H   0  0  0  0  0  0  0  0  0  0  0  0
   -5.8320   13.5460   -9.6910 C   0  0  2  0  0  0  0  0  0  0  0  0
   -5.6450   12.7780  -10.4420 H   0  0  0  0  0  0  0  0  0  0  0  0
   -7.0770   14.3290  -10.1220 C   0  0  0  0  0  3  0  0  0  0  0  0
   -8.0250   13.7390  -10.5890 O   0  0  0  0  0  0  0  0  0  0  0  0
   -6.0610   12.8570   -8.3570 C   0  0  0  0  0  0  0  0  0  0  0  0
   -5.9730   13.6020   -7.5670 H   0  0  0  0  0  0  0  0  0  0  0  0
   -7.0700   12.4440   -8.3540 H   0  0  0  0  0  0  0  0  0  0  0  0
   -5.0730   11.7210   -8.0610 C   0  0  0  0  0  0  0  0  0  0  0  0
   -4.0720   11.8810   -7.1020 C   0  0  0  0  0  0  0  0  0  0  0  0
   -3.9860   12.8270   -6.5670 H   0  0  0  0  0  0  0  0  0  0  0  0
   -5.1740   10.4980   -8.7080 C   0  0  0  0  0  0  0  0  0  0  0  0
   -5.9560   10.3530   -9.4530 H   0  0  0  0  0  0  0  0  0  0  0  0
   -3.1820   10.8480   -6.8190 C   0  0  0  0  0  0  0  0  0  0  0  0
   -2.4060   10.9870   -6.0660 H   0  0  0  0  0  0  0  0  0  0  0  0
   -4.2920    9.4420   -8.4250 C   0  0  0  0  0  0  0  0  0  0  0  0
   -4.4060    8.4830   -8.9310 H   0  0  0  0  0  0  0  0  0  0  0  0
   -3.2860    9.6220   -7.5080 C   0  0  0  0  0  0  0  0  0  0  0  0
   -2.5720    8.8220   -7.3140 H   0  0  0  0  0  0  0  0  0  0  0  0
   -3.3140    5.0230  -13.0570 N   0  0  0  0  0  2  0  0  0  0  0  0
   -4.1400    5.6150  -12.8370 H   0  0  0  0  0  0  0  0  0  0  0  0
   -2.5170    4.4610  -11.9940 C   0  0  2  0  0  0  0  0  0  0  0  0
   -1.7250    3.8470  -12.4230 H   0  0  0  0  0  0  0  0  0  0  0  0
   -3.4380    3.6400  -11.1070 C   0  0  0  0  0  3  0  0  0  0  0  0
   -4.4710    4.1900  -10.6370 O   0  0  0  0  0  0  0  0  0  0  0  0
   -1.8540    5.5840  -11.1350 C   0  0  0  0  0  0  0  0  0  0  0  0
   -2.6490    6.2450  -10.7900 H   0  0  0  0  0  0  0  0  0  0  0  0
   -1.1450    4.9970   -9.9330 C   0  0  0  0  0  0  0  0  0  0  0  0
   -1.8650    4.4610   -9.3150 H   0  0  0  0  0  0  0  0  0  0  0  0
   -0.3700    4.3090  -10.2700 H   0  0  0  0  0  0  0  0  0  0  0  0
   -0.6920    5.8000   -9.3520 H   0  0  0  0  0  0  0  0  0  0  0  0
   -0.8790    6.3820  -11.9530 C   0  0  0  0  0  0  0  0  0  0  0  0
   -0.0980    5.7220  -12.3300 H   0  0  0  0  0  0  0  0  0  0  0  0
   -1.4020    6.8440  -12.7900 H   0  0  0  0  0  0  0  0  0  0  0  0
   -0.4320    7.1570  -11.3300 H   0  0  0  0  0  0  0  0  0  0  0  0
   -4.5210    2.0210   -7.7850 N   0  0  0  0  0  2  0  0  0  0  0  0
   -5.4600    2.1270   -8.2190 H   0  0  0  0  0  0  0  0  0  0  0  0
   -4.3760    2.2860   -6.3400 C   0  0  2  0  0  0  0  0  0  0  0  0
   -3.3700    1.9630   -6.0710 H   0  0  0  0  0  0  0  0  0  0  0  0
   -5.3740    1.4700   -5.5200 C   0  0  0  0  0  3  0  0  0  0  0  0
   -6.6090    1.7400   -5.5300 O   0  0  0  0  0  0  0  0  0  0  0  0
   -4.4620    3.8040   -5.9870 C   0  0  2  0  0  0  0  0  0  0  0  0
   -5.4400    4.1780   -6.2900 H   0  0  0  0  0  0  0  0  0  0  0  0
   -3.3750    4.5860   -6.7450 C   0  0  0  0  0  0  0  0  0  0  0  0
   -2.4260    4.4330   -6.2310 H   0  0  0  0  0  0  0  0  0  0  0  0
   -3.3090    4.1820   -7.7550 H   0  0  0  0  0  0  0  0  0  0  0  0
   -4.3050    4.0130   -4.4580 C   0  0  0  0  0  0  0  0  0  0  0  0
   -5.1000    3.4810   -3.9360 H   0  0  0  0  0  0  0  0  0  0  0  0
   -3.3370    3.6280   -4.1370 H   0  0  0  0  0  0  0  0  0  0  0  0
   -4.3670    5.0770   -4.2300 H   0  0  0  0  0  0  0  0  0  0  0  0
   -3.6210    6.0930   -6.8510 C   0  0  0  0  0  0  0  0  0  0  0  0
   -4.5590    6.2710   -7.3760 H   0  0  0  0  0  0  0  0  0  0  0  0
   -3.6760    6.5220   -5.8510 H   0  0  0  0  0  0  0  0  0  0  0  0
   -2.8020    6.5560   -7.4010 H   0  0  0  0  0  0  0  0  0  0  0  0
   -7.1030    4.9550  -11.2140 N   0  0  0  0  0  2  0  0  0  0  0  0
   -6.1220    4.6450  -11.0650 H   0  0  0  0  0  0  0  0  0  0  0  0
   -7.3690    6.3930  -11.2260 C   0  0  2  0  0  0  0  0  0  0  0  0
   -8.4260    6.5500  -11.4390 H   0  0  0  0  0  0  0  0  0  0  0  0
   -6.5510    7.1110  -12.3230 C   0  0  0  0  0  3  0  0  0  0  0  0
   -5.3670    6.8340  -12.4820 O   0  0  0  0  0  0  0  0  0  0  0  0
   -6.9990    6.9690   -9.8590 C   0  0  0  0  0  0  0  0  0  0  0  0
   -5.9460    6.7590   -9.6690 H   0  0  0  0  0  0  0  0  0  0  0  0
   -7.1550    8.0480   -9.8840 H   0  0  0  0  0  0  0  0  0  0  0  0
   -7.8100    6.3970   -8.7320 C   0  0  0  0  0  0  0  0  0  0  0  0
   -9.1120    6.7880   -8.4820 N   0  0  0  0  0  0  0  0  0  0  0  0
   -7.5200    5.4300   -7.8250 C   0  0  0  0  0  0  0  0  0  0  0  0
   -6.5730    4.9000   -7.7210 H   0  0  0  0  0  0  0  0  0  0  0  0
   -9.5840    6.0790   -7.4730 C   0  0  0  0  0  0  0  0  0  0  0  0
  -10.5840    6.1660   -7.0470 H   0  0  0  0  0  0  0  0  0  0  0  0
   -8.6430    5.2470   -7.0660 N   0  0  0  0  0  0  0  0  0  0  0  0
   -4.3430    9.9870  -13.8600 N   0  0  0  0  0  2  0  0  0  0  0  0
   -3.9430    9.2670  -14.4950 H   0  0  0  0  0  0  0  0  0  0  0  0
   -3.4660   11.0950  -13.4060 C   0  0  2  0  0  0  0  0  0  0  0  0
   -3.9980   11.6020  -12.6010 H   0  0  0  0  0  0  0  0  0  0  0  0
   -3.1980   12.0700  -14.5610 C   0  0  0  0  0  3  0  0  0  0  0  0
   -2.6940   11.6660  -15.6100 O   0  0  0  0  0  0  0  0  0  0  0  0
   -2.1230   10.5980  -12.8370 C   0  0  0  0  0  0  0  0  0  0  0  0
   -1.6160   10.0380  -13.6230 H   0  0  0  0  0  0  0  0  0  0  0  0
   -1.2160   11.7770  -12.4230 C   0  0  0  0  0  0  0  0  0  0  0  0
   -1.0140   12.4010  -13.2930 H   0  0  0  0  0  0  0  0  0  0  0  0
   -1.7190   12.3690  -11.6580 H   0  0  0  0  0  0  0  0  0  0  0  0
   -0.2780   11.3900  -12.0260 H   0  0  0  0  0  0  0  0  0  0  0  0
   -2.3600    9.6900  -11.6480 C   0  0  0  0  0  0  0  0  0  0  0  0
   -2.8940   10.2400  -10.8730 H   0  0  0  0  0  0  0  0  0  0  0  0
   -2.9540    8.8310  -11.9610 H   0  0  0  0  0  0  0  0  0  0  0  0
   -1.4020    9.3470  -11.2570 H   0  0  0  0  0  0  0  0  0  0  0  0
   10.6540   11.3050   -5.5760 N   0  0  0  0  0  2  0  0  0  0  0  0
   10.3920   12.2850   -5.8030 H   0  0  0  0  0  0  0  0  0  0  0  0
   10.0940   10.6720   -4.3490 C   0  0  2  0  0  0  0  0  0  0  0  0
   10.8680    9.9920   -3.9930 H   0  0  0  0  0  0  0  0  0  0  0  0
    8.8430    9.8410   -4.6350 C   0  0  0  0  0  0  0  0  0  0  0  0
    8.3760    9.1070   -3.7350 O   0  0  0  0  0  0  0  0  0  0  0  0
    9.8210   11.6790   -3.2540 C   0  0  0  0  0  0  0  0  0  0  0  0
   10.7510   12.1790   -2.9810 H   0  0  0  0  0  0  0  0  0  0  0  0
    9.1020   12.4160   -3.6110 H   0  0  0  0  0  0  0  0  0  0  0  0
    9.4140   11.1650   -2.3830 H   0  0  0  0  0  0  0  0  0  0  0  0
    8.3280    9.9240   -5.8760 N   0  0  0  0  0  0  0  0  0  0  0  0
    8.8050   10.5390   -6.5650 H   0  0  0  0  0  0  0  0  0  0  0  0
    7.1420    9.2010   -6.3060 C   0  0  2  0  0  0  0  0  0  0  0  0
    6.4000    9.3360   -5.5190 H   0  0  0  0  0  0  0  0  0  0  0  0
    7.4250    7.7530   -6.4980 C   0  0  0  0  0  0  0  0  0  0  0  0
    8.5700    7.2700   -6.4620 O   0  0  0  0  0  0  0  0  0  0  0  0
    6.6180    9.7450   -7.6390 C   0  0  0  0  0  0  0  0  0  0  0  0
    5.6190    9.3460   -7.8150 H   0  0  0  0  0  0  0  0  0  0  0  0
    7.2840    9.4210   -8.4390 H   0  0  0  0  0  0  0  0  0  0  0  0
    6.5530   11.1910   -7.6390 O   0  0  0  0  0  0  0  0  0  0  0  0
    6.2110   11.5050   -8.5140 H   0  0  0  0  0  0  0  0  0  0  0  0
    6.3550    7.0580   -6.8100 N   0  0  0  0  0  0  0  0  0  0  0  0
    5.4610    7.5640   -6.9720 H   0  0  0  0  0  0  0  0  0  0  0  0
    6.3700    5.6400   -6.9350 C   0  0  2  0  0  0  0  0  0  0  0  0
    7.1620    5.1570   -6.3640 H   0  0  0  0  0  0  0  0  0  0  0  0
    6.5790    5.3360   -8.4090 C   0  0  0  0  0  3  0  0  0  0  0  0
    6.0940    6.0730   -9.2600 O   0  0  0  0  0  0  0  0  0  0  0  0
    5.0220    5.1190   -6.4090 C   0  0  0  0  0  0  0  0  0  0  0  0
    4.2350    5.7010   -6.8870 H   0  0  0  0  0  0  0  0  0  0  0  0
    4.9330    4.0750   -6.7090 H   0  0  0  0  0  0  0  0  0  0  0  0
    4.7900    5.1880   -4.8740 C   0  0  0  0  0  0  0  0  0  0  0  0
    5.0100    6.2120   -4.5710 H   0  0  0  0  0  0  0  0  0  0  0  0
    3.3110    4.7880   -4.5700 C   0  0  0  0  0  0  0  0  0  0  0  0
    2.6380    5.4790   -5.0770 H   0  0  0  0  0  0  0  0  0  0  0  0
    3.1300    3.7740   -4.9260 H   0  0  0  0  0  0  0  0  0  0  0  0
    3.1370    4.8330   -3.4950 H   0  0  0  0  0  0  0  0  0  0  0  0
    5.7270    4.2640   -4.0560 C   0  0  0  0  0  0  0  0  0  0  0  0
    5.5710    3.2290   -4.3610 H   0  0  0  0  0  0  0  0  0  0  0  0
    6.7640    4.5460   -4.2400 H   0  0  0  0  0  0  0  0  0  0  0  0
    5.5030    4.3690   -2.9940 H   0  0  0  0  0  0  0  0  0  0  0  0
    5.3050    3.2970  -10.3550 N   0  0  0  0  0  2  0  0  0  0  0  0
    5.3190    3.2100   -9.3190 H   0  0  0  0  0  0  0  0  0  0  0  0
    4.1120    2.9140  -11.0930 C   0  0  2  0  0  0  0  0  0  0  0  0
    4.3770    2.2010  -11.8730 H   0  0  0  0  0  0  0  0  0  0  0  0
    3.5250    4.1710  -11.7290 C   0  0  0  0  0  0  0  0  0  0  0  0
    2.8290    4.0740  -12.7370 O   0  0  0  0  0  0  0  0  0  0  0  0
    3.0890    2.1810  -10.2000 C   0  0  0  0  0  0  0  0  0  0  0  0
    2.2390    1.8870  -10.8160 H   0  0  0  0  0  0  0  0  0  0  0  0
    3.5630    1.2900   -9.7890 H   0  0  0  0  0  0  0  0  0  0  0  0
    2.5850    3.0260   -9.0590 C   0  0  0  0  0  0  0  0  0  0  0  0
    3.2850    2.9380   -8.2280 H   0  0  0  0  0  0  0  0  0  0  0  0
    2.5440    4.0640   -9.3890 H   0  0  0  0  0  0  0  0  0  0  0  0
    1.2080    2.6210   -8.5730 C   0  0  0  0  0  0  0  0  0  0  0  0
    0.7530    3.4710   -8.0650 H   0  0  0  0  0  0  0  0  0  0  0  0
    0.6000    2.3470   -9.4350 H   0  0  0  0  0  0  0  0  0  0  0  0
    1.2480    1.4500   -7.6160 C   0  0  0  0  0  0  0  0  0  0  0  0
    2.1300    1.5540   -6.9850 H   0  0  0  0  0  0  0  0  0  0  0  0
    1.3270    0.5330   -8.2000 H   0  0  0  0  0  0  0  0  0  0  0  0
    0.0220    1.3380   -6.7120 N   0  0  0  0  0  4  0  0  0  0  0  0
   -0.0630    2.2000   -6.1370 H   0  0  0  0  0  0  0  0  0  0  0  0
   -0.8300    1.2250   -7.2980 H   0  0  0  0  0  0  0  0  0  0  0  0
    0.1270    0.5130   -6.0880 H   0  0  0  0  0  0  0  0  0  0  0  0
    3.8150    5.3320  -11.1570 N   0  0  0  0  0  0  0  0  0  0  0  0
    4.3440    5.3460  -10.2620 H   0  0  0  0  0  0  0  0  0  0  0  0
    3.4060    6.5700  -11.7600 C   0  0  2  0  0  0  0  0  0  0  0  0
    2.6010    6.3500  -12.4610 H   0  0  0  0  0  0  0  0  0  0  0  0
    4.5830    7.2000  -12.5340 C   0  0  0  0  0  3  0  0  0  0  0  0
    4.3900    7.6850  -13.6440 O   0  0  0  0  0  0  0  0  0  0  0  0
    2.8330    7.5740  -10.6990 C   0  0  0  0  0  0  0  0  0  0  0  0
    1.7520    7.4410  -10.6510 H   0  0  0  0  0  0  0  0  0  0  0  0
    3.2710    7.3350   -9.7300 H   0  0  0  0  0  0  0  0  0  0  0  0
    3.1220    9.0400  -11.0060 C   0  0  0  0  0  0  0  0  0  0  0  0
    2.4190    9.6990  -11.9770 C   0  0  0  0  0  0  0  0  0  0  0  0
    1.6340    9.1740  -12.5200 H   0  0  0  0  0  0  0  0  0  0  0  0
    4.1580    9.7400  -10.3510 C   0  0  0  0  0  0  0  0  0  0  0  0
    4.7460    9.2230   -9.5930 H   0  0  0  0  0  0  0  0  0  0  0  0
    2.7000   11.0760  -12.2930 C   0  0  0  0  0  0  0  0  0  0  0  0
    2.1060   11.5870  -13.0510 H   0  0  0  0  0  0  0  0  0  0  0  0
    4.4620   11.1120  -10.6520 C   0  0  0  0  0  0  0  0  0  0  0  0
    5.2550   11.6380  -10.1200 H   0  0  0  0  0  0  0  0  0  0  0  0
    3.7150   11.7570  -11.6450 C   0  0  0  0  0  0  0  0  0  0  0  0
    3.9630   13.0750  -12.0290 O   0  0  0  0  0  0  0  0  0  0  0  0
    3.3260   13.3360  -12.7410 H   0  0  0  0  0  0  0  0  0  0  0  0
   10.9780    6.3050   -4.9480 N   0  0  0  0  0  2  0  0  0  0  0  0
   10.1880    5.9880   -5.5450 H   0  0  0  0  0  0  0  0  0  0  0  0
   10.7200    6.5580   -3.5270 C   0  0  2  0  0  0  0  0  0  0  0  0
   10.9690    7.6020   -3.3390 H   0  0  0  0  0  0  0  0  0  0  0  0
   11.6250    5.7190   -2.6400 C   0  0  0  0  0  3  0  0  0  0  0  0
   12.2670    6.2920   -1.7970 O   0  0  0  0  0  0  0  0  0  0  0  0
    9.2040    6.4100   -3.1540 C   0  0  0  0  0  0  0  0  0  0  0  0
    8.6640    7.2090   -3.6620 H   0  0  0  0  0  0  0  0  0  0  0  0
    8.8680    5.4460   -3.5360 H   0  0  0  0  0  0  0  0  0  0  0  0
    8.8060    6.4750   -1.6050 C   0  0  0  0  0  0  0  0  0  0  0  0
    9.0730    5.5270   -1.1380 H   0  0  0  0  0  0  0  0  0  0  0  0
    9.3690    7.2810   -1.1350 H   0  0  0  0  0  0  0  0  0  0  0  0
    7.2710    6.7340   -1.3710 C   0  0  0  0  0  0  0  0  0  0  0  0
    6.9860    6.4380   -0.3620 H   0  0  0  0  0  0  0  0  0  0  0  0
    6.6770    6.1740   -2.0940 H   0  0  0  0  0  0  0  0  0  0  0  0
    7.0740    8.1750   -1.5550 N   0  0  0  0  0  0  0  0  0  0  0  0
    7.9010    8.7810   -1.3810 H   0  0  0  0  0  0  0  0  0  0  0  0
    5.9530    8.7950   -1.9200 C   0  0  0  0  0  0  0  0  0  0  0  0
    4.8300    8.1290   -2.1550 N   0  0  0  0  0  4  0  0  0  0  0  0
    4.8090    7.0940   -2.0560 H   0  0  0  0  0  0  0  0  0  0  0  0
    3.9710    8.6420   -2.4390 H   0  0  0  0  0  0  0  0  0  0  0  0
    5.9750   10.1110   -2.0680 N   0  0  0  0  0  0  0  0  0  0  0  0
    6.8550   10.6390   -1.9000 H   0  0  0  0  0  0  0  0  0  0  0  0
    5.1120   10.6170   -2.3520 H   0  0  0  0  0  0  0  0  0  0  0  0
   11.6800   13.6970    2.1500 N   0  0  0  0  0  2  0  0  0  0  0  0
   11.0060   14.3750    1.7400 H   0  0  0  0  0  0  0  0  0  0  0  0
   12.3750   12.7460    1.2760 C   0  0  2  0  0  0  0  0  0  0  0  0
   12.5890   11.8420    1.8460 H   0  0  0  0  0  0  0  0  0  0  0  0
   13.6730   13.4000    0.7880 C   0  0  0  0  0  3  0  0  0  0  0  0
   13.6690   14.3550    0.0170 O   0  0  0  0  0  0  0  0  0  0  0  0
   11.5200   12.3200    0.0890 C   0  0  0  0  0  0  0  0  0  0  0  0
   11.3570   13.1990   -0.5350 H   0  0  0  0  0  0  0  0  0  0  0  0
   12.0810   11.5750   -0.4740 H   0  0  0  0  0  0  0  0  0  0  0  0
   10.1640   11.7270    0.4160 C   0  0  0  0  0  0  0  0  0  0  0  0
   10.0310   10.3500    0.7370 C   0  0  0  0  0  0  0  0  0  0  0  0
   10.9170    9.7150    0.7680 H   0  0  0  0  0  0  0  0  0  0  0  0
    9.0060   12.5450    0.3790 C   0  0  0  0  0  0  0  0  0  0  0  0
    9.1020   13.6000    0.1210 H   0  0  0  0  0  0  0  0  0  0  0  0
    8.7740    9.8000    1.0140 C   0  0  0  0  0  0  0  0  0  0  0  0
    8.6750    8.7420    1.2580 H   0  0  0  0  0  0  0  0  0  0  0  0
    7.7410   12.0170    0.6690 C   0  0  0  0  0  0  0  0  0  0  0  0
    6.8570   12.6550    0.6610 H   0  0  0  0  0  0  0  0  0  0  0  0
    7.6340   10.6360    0.9730 C   0  0  0  0  0  0  0  0  0  0  0  0
    6.3730   10.1120    1.2340 O   0  0  0  0  0  0  0  0  0  0  0  0
    6.4530    9.1450    1.4290 H   0  0  0  0  0  0  0  0  0  0  0  0
    6.8140   13.4770   -8.2220 H   0  0  0  0  0  0  0  0  0  0  0  0
   -8.7350    4.5970   -6.3320 H   0  0  0  0  0  0  0  0  0  0  0  0
  1  2  1  0
  1  3  1  0
  3  4  1  6
  3  5  1  0
  3  7  1  0
  5  6  2  0
  7  8  1  0
  7  9  1  0
  7 10  1  0
 10 11  2  0
 10 12  1  0
 12250  1  0
 13 14  1  0
 13 15  1  0
 15 16  1  6
 15 17  1  0
 15 19  1  0
 17 18  2  0
 17 24  1  0
 19 20  1  0
 19 21  1  0
 19 22  1  0
 22 23  1  0
 24 25  1  0
 24 26  1  0
 26 27  1  1
 26 28  1  0
 26 30  1  0
 28 29  2  0
 28 35  1  0
 30 31  1  0
 30 32  1  0
 30 33  1  0
 33 34  1  0
 35 36  1  0
 35 37  1  0
 37 38  1  6
 37 39  1  0
 37 41  1  0
 39 40  2  0
 41 42  1  0
 41 43  1  0
 41 44  1  0
 44 45  2  0
 44 47  1  0
 45 46  1  0
 45 49  1  0
 47 48  1  0
 47 51  2  0
 49 50  1  0
 49 53  2  0
 51 52  1  0
 51 53  1  0
 53 54  1  0
 55 56  1  0
 55 57  1  0
 57 58  1  6
 57 59  1  0
 57 61  1  0
 59 60  2  0
 61 62  1  0
 61 63  1  0
 61 67  1  0
 63 64  1  0
 63 65  1  0
 63 66  1  0
 67 68  1  0
 67 69  1  0
 67 70  1  0
 71 72  1  0
 71 73  1  0
 73 74  1  1
 73 75  1  0
 73 77  1  0
 75 76  2  0
 77 78  1  6
 77 79  1  0
 77 82  1  0
 79 80  1  0
 79 81  1  0
 79 86  1  0
 82 83  1  0
 82 84  1  0
 82 85  1  0
 86 87  1  0
 86 88  1  0
 86 89  1  0
 90 91  1  0
 90 92  1  0
 92 93  1  6
 92 94  1  0
 92 96  1  0
 94 95  2  0
 96 97  1  0
 96 98  1  0
 96 99  1  0
 99100  1  0
 99101  2  0
100103  2  0
101102  1  0
101105  1  0
103104  1  0
103105  1  0
105251  1  0
106107  1  0
106108  1  0
108109  1  1
108110  1  0
108112  1  0
110111  2  0
112113  1  0
112114  1  0
112118  1  0
114115  1  0
114116  1  0
114117  1  0
118119  1  0
118120  1  0
118121  1  0
122123  1  0
122124  1  0
124125  1  1
124126  1  0
124128  1  0
126127  2  0
126132  1  0
128129  1  0
128130  1  0
128131  1  0
132133  1  0
132134  1  0
134135  1  1
134136  1  0
134138  1  0
136137  2  0
136143  1  0
138139  1  0
138140  1  0
138141  1  0
141142  1  0
143144  1  0
143145  1  0
145146  1  1
145147  1  0
145149  1  0
147148  2  0
149150  1  0
149151  1  0
149152  1  0
152153  1  0
152154  1  0
152158  1  0
154155  1  0
154156  1  0
154157  1  0
158159  1  0
158160  1  0
158161  1  0
162163  1  0
162164  1  0
164165  1  6
164166  1  0
164168  1  0
166167  2  0
166184  1  0
168169  1  0
168170  1  0
168171  1  0
171172  1  0
171173  1  0
171174  1  0
174175  1  0
174176  1  0
174177  1  0
177178  1  0
177179  1  0
177180  1  0
180181  1  0
180182  1  0
180183  1  0
184185  1  0
184186  1  0
186187  1  6
186188  1  0
186190  1  0
188189  2  0
190191  1  0
190192  1  0
190193  1  0
193194  2  0
193196  1  0
194195  1  0
194198  1  0
196197  1  0
196200  2  0
198199  1  0
198202  2  0
200201  1  0
200202  1  0
202203  1  0
203204  1  0
205206  1  0
205207  1  0
207208  1  6
207209  1  0
207211  1  0
209210  2  0
211212  1  0
211213  1  0
211214  1  0
214215  1  0
214216  1  0
214217  1  0
217218  1  0
217219  1  0
217220  1  0
220221  1  0
220222  1  0
222223  2  0
222226  1  0
223224  1  0
223225  1  0
226227  1  0
226228  1  0
229230  1  0
229231  1  0
231232  1  1
231233  1  0
231235  1  0
233234  2  0
235236  1  0
235237  1  0
235238  1  0
238239  2  0
238241  1  0
239240  1  0
239243  1  0
241242  1  0
241245  2  0
243244  1  0
243247  2  0
245246  1  0
245247  1  0
247248  1  0
248249  1  0
M  RAD  8   1   2   5   2  13   2  39   2  55   2  59   2  71   2  75   2
M  RAD  8  90   2  94   2 106   2 110   2 122   2 147   2 162   2 188   2
M  CHG  2 180   1 223   1
M  RAD  4 205   2 209   2 229   2 233   2
M  END
$$$$

     RDKit          3D

251245  0  0  0  0  0  0  0  0999 V2000
    8.2390   15.7430  -10.2460 N   0  0  0  0  0  2  0  0  0  0  0  0
    8.4060   14.8450   -9.7480 H   0  0  0  0  0  0  0  0  0  0  0  0
    7.1270   16.5820   -9.8330 C   0  0  2  0  0  0  0  0  0  0  0  0
    6.5240   16.7530  -10.7240 H   0  0  0  0  0  0  0  0  0  0  0  0
    7.5010   17.9630   -9.3590 C   0  0  0  0  0  3  0  0  0  0  0  0
    8.3130   18.1090   -8.4540 O   0  0  0  0  0  0  0  0  0  0  0  0
    6.3630   15.8620   -8.7680 C   0  0  0  0  0  0  0  0  0  0  0  0
    7.0440   15.5910   -7.9610 H   0  0  0  0  0  0  0  0  0  0  0  0
    5.5850   16.5200   -8.3800 H   0  0  0  0  0  0  0  0  0  0  0  0
    5.7360   14.6350   -9.3040 C   0  0  0  0  0  0  0  0  0  0  0  0
    4.8520   14.7920  -10.1880 O   0  0  0  0  0  0  0  0  0  0  0  0
    6.1520   13.5130   -8.8840 O   0  0  0  0  0  0  0  0  0  0  0  0
    1.6580   16.8130  -11.9920 N   0  0  0  0  0  2  0  0  0  0  0  0
    2.3630   16.6600  -11.2430 H   0  0  0  0  0  0  0  0  0  0  0  0
    0.5750   15.8710  -12.1280 C   0  0  2  0  0  0  0  0  0  0  0  0
    0.1290   15.9910  -13.1150 H   0  0  0  0  0  0  0  0  0  0  0  0
   -0.5220   16.1130  -11.1130 C   0  0  0  0  0  0  0  0  0  0  0  0
   -0.2990   16.7340  -10.0760 O   0  0  0  0  0  0  0  0  0  0  0  0
    1.1300   14.4960  -11.9520 C   0  0  0  0  0  0  0  0  0  0  0  0
    0.3140   13.7740  -11.9180 H   0  0  0  0  0  0  0  0  0  0  0  0
    1.6970   14.4460  -11.0220 H   0  0  0  0  0  0  0  0  0  0  0  0
    1.9940   14.1960  -13.0610 O   0  0  0  0  0  0  0  0  0  0  0  0
    2.3660   13.2850  -12.9510 H   0  0  0  0  0  0  0  0  0  0  0  0
   -1.7070   15.5990  -11.3820 N   0  0  0  0  0  0  0  0  0  0  0  0
   -1.8300   15.0390  -12.2500 H   0  0  0  0  0  0  0  0  0  0  0  0
   -2.8500   15.7940  -10.4960 C   0  0  2  0  0  0  0  0  0  0  0  0
   -2.4940   15.6940   -9.4710 H   0  0  0  0  0  0  0  0  0  0  0  0
   -3.9360   14.7420  -10.7100 C   0  0  0  0  0  0  0  0  0  0  0  0
   -4.1170   14.2150  -11.8220 O   0  0  0  0  0  0  0  0  0  0  0  0
   -3.4310   17.1680  -10.7260 C   0  0  0  0  0  0  0  0  0  0  0  0
   -3.6970   17.2780  -11.7770 H   0  0  0  0  0  0  0  0  0  0  0  0
   -2.6920   17.9230  -10.4590 H   0  0  0  0  0  0  0  0  0  0  0  0
   -4.5930   17.3400   -9.9250 O   0  0  0  0  0  0  0  0  0  0  0  0
   -4.9690   18.2430  -10.0800 H   0  0  0  0  0  0  0  0  0  0  0  0
   -4.6520   14.4140   -9.6350 N   0  0  0  0  0  0  0  0  0  0  0  0
   -4.3590   14.7920   -8.7110 H   0  0  0  0  0  0  0  0  0  0  0  0
   -5.8320   13.5460   -9.6910 C   0  0  2  0  0  0  0  0  0  0  0  0
   -5.6450   12.7780  -10.4420 H   0  0  0  0  0  0  0  0  0  0  0  0
   -7.0770   14.3290  -10.1220 C   0  0  0  0  0  3  0  0  0  0  0  0
   -8.0250   13.7390  -10.5890 O   0  0  0  0  0  0  0  0  0  0  0  0
   -6.0610   12.8570   -8.3570 C   0  0  0  0  0  0  0  0  0  0  0  0
   -5.9730   13.6020   -7.5670 H   0  0  0  0  0  0  0  0  0  0  0  0
   -7.0700   12.4440   -8.3540 H   0  0  0  0  0  0  0  0  0  0  0  0
   -5.0730   11.7210   -8.0610 C   0  0  0  0  0  0  0  0  0  0  0  0
   -4.0720   11.8810   -7.1020 C   0  0  0  0  0  0  0  0  0  0  0  0
   -3.9860   12.8270   -6.5670 H   0  0  0  0  0  0  0  0  0  0  0  0
   -5.1740   10.4980   -8.7080 C   0  0  0  0  0  0  0  0  0  0  0  0
   -5.9560   10.3530   -9.4530 H   0  0  0  0  0  0  0  0  0  0  0  0
   -3.1820   10.8480   -6.8190 C   0  0  0  0  0  0  0  0  0  0  0  0
   -2.4060   10.9870   -6.0660 H   0  0  0  0  0  0  0  0  0  0  0  0
   -4.2920    9.4420   -8.4250 C   0  0  0  0  0  0  0  0  0  0  0  0
   -4.4060    8.4830   -8.9310 H   0  0  0  0  0  0  0  0  0  0  0  0
   -3.2860    9.6220   -7.5080 C   0  0  0  0  0  0  0  0  0  0  0  0
   -2.5720    8.8220   -7.3140 H   0  0  0  0  0  0  0  0  0  0  0  0
   -3.3140    5.0230  -13.0570 N   0  0  0  0  0  2  0  0  0  0  0  0
   -4.1400    5.6150  -12.8370 H   0  0  0  0  0  0  0  0  0  0  0  0
   -2.5170    4.4610  -11.9940 C   0  0  2  0  0  0  0  0  0  0  0  0
   -1.7250    3.8470  -12.4230 H   0  0  0  0  0  0  0  0  0  0  0  0
   -3.4380    3.6400  -11.1070 C   0  0  0  0  0  3  0  0  0  0  0  0
   -4.4710    4.1900  -10.6370 O   0  0  0  0  0  0  0  0  0  0  0  0
   -1.8540    5.5840  -11.1350 C   0  0  0  0  0  0  0  0  0  0  0  0
   -2.6490    6.2450  -10.7900 H   0  0  0  0  0  0  0  0  0  0  0  0
   -1.1450    4.9970   -9.9330 C   0  0  0  0  0  0  0  0  0  0  0  0
   -1.8650    4.4610   -9.3150 H   0  0  0  0  0  0  0  0  0  0  0  0
   -0.3700    4.3090  -10.2700 H   0  0  0  0  0  0  0  0  0  0  0  0
   -0.6920    5.8000   -9.3520 H   0  0  0  0  0  0  0  0  0  0  0  0
   -0.8790    6.3820  -11.9530 C   0  0  0  0  0  0  0  0  0  0  0  0
   -0.0980    5.7220  -12.3300 H   0  0  0  0  0  0  0  0  0  0  0  0
   -1.4020    6.8440  -12.7900 H   0  0  0  0  0  0  0  0  0  0  0  0
   -0.4320    7.1570  -11.3300 H   0  0  0  0  0  0  0  0  0  0  0  0
   -4.5210    2.0210   -7.7850 N   0  0  0  0  0  2  0  0  0  0  0  0
   -5.4600    2.1270   -8.2190 H   0  0  0  0  0  0  0  0  0  0  0  0
   -4.3760    2.2860   -6.3400 C   0  0  2  0  0  0  0  0  0  0  0  0
   -3.3700    1.9630   -6.0710 H   0  0  0  0  0  0  0  0  0  0  0  0
   -5.3740    1.4700   -5.5200 C   0  0  0  0  0  3  0  0  0  0  0  0
   -6.6090    1.7400   -5.5300 O   0  0  0  0  0  0  0  0  0  0  0  0
   -4.4620    3.8040   -5.9870 C   0  0  2  0  0  0  0  0  0  0  0  0
   -5.4400    4.1780   -6.2900 H   0  0  0  0  0  0  0  0  0  0  0  0
   -3.3750    4.5860   -6.7450 C   0  0  0  0  0  0  0  0  0  0  0  0
   -2.4260    4.4330   -6.2310 H   0  0  0  0  0  0  0  0  0  0  0  0
   -3.3090    4.1820   -7.7550 H   0  0  0  0  0  0  0  0  0  0  0  0
   -4.3050    4.0130   -4.4580 C   0  0  0  0  0  0  0  0  0  0  0  0
   -5.1000    3.4810   -3.9360 H   0  0  0  0  0  0  0  0  0  0  0  0
   -3.3370    3.6280   -4.1370 H   0  0  0  0  0  0  0  0  0  0  0  0
   -4.3670    5.0770   -4.2300 H   0  0  0  0  0  0  0  0  0  0  0  0
   -3.6210    6.0930   -6.8510 C   0  0  0  0  0  0  0  0  0  0  0  0
   -4.5590    6.2710   -7.3760 H   0  0  0  0  0  0  0  0  0  0  0  0
   -3.6760    6.5220   -5.8510 H   0  0  0  0  0  0  0  0  0  0  0  0
   -2.8020    6.5560   -7.4010 H   0  0  0  0  0  0  0  0  0  0  0  0
   -7.1030    4.9550  -11.2140 N   0  0  0  0  0  2  0  0  0  0  0  0
   -6.1220    4.6450  -11.0650 H   0  0  0  0  0  0  0  0  0  0  0  0
   -7.3690    6.3930  -11.2260 C   0  0  2  0  0  0  0  0  0  0  0  0
   -8.4260    6.5500  -11.4390 H   0  0  0  0  0  0  0  0  0  0  0  0
   -6.5510    7.1110  -12.3230 C   0  0  0  0  0  3  0  0  0  0  0  0
   -5.3670    6.8340  -12.4820 O   0  0  0  0  0  0  0  0  0  0  0  0
   -6.9990    6.9690   -9.8590 C   0  0  0  0  0  0  0  0  0  0  0  0
   -5.9460    6.7590   -9.6690 H   0  0  0  0  0  0  0  0  0  0  0  0
   -7.1550    8.0480   -9.8840 H   0  0  0  0  0  0  0  0  0  0  0  0
   -7.8100    6.3970   -8.7320 C   0  0  0  0  0  0  0  0  0  0  0  0
   -9.1120    6.7880   -8.4820 N   0  0  0  0  0  0  0  0  0  0  0  0
   -7.5200    5.4300   -7.8250 C   0  0  0  0  0  0  0  0  0  0  0  0
   -6.5730    4.9000   -7.7210 H   0  0  0  0  0  0  0  0  0  0  0  0
   -9.5840    6.0790   -7.4730 C   0  0  0  0  0  0  0  0  0  0  0  0
  -10.5840    6.1660   -7.0470 H   0  0  0  0  0  0  0  0  0  0  0  0
   -8.6430    5.2470   -7.0660 N   0  0  0  0  0  0  0  0  0  0  0  0
   -4.3430    9.9870  -13.8600 N   0  0  0  0  0  2  0  0  0  0  0  0
   -3.9430    9.2670  -14.4950 H   0  0  0  0  0  0  0  0  0  0  0  0
   -3.4660   11.0950  -13.4060 C   0  0  2  0  0  0  0  0  0  0  0  0
   -3.9980   11.6020  -12.6010 H   0  0  0  0  0  0  0  0  0  0  0  0
   -3.1980   12.0700  -14.5610 C   0  0  0  0  0  3  0  0  0  0  0  0
   -2.6940   11.6660  -15.6100 O   0  0  0  0  0  0  0  0  0  0  0  0
   -2.1230   10.5980  -12.8370 C   0  0  0  0  0  0  0  0  0  0  0  0
   -1.6160   10.0380  -13.6230 H   0  0  0  0  0  0  0  0  0  0  0  0
   -1.2160   11.7770  -12.4230 C   0  0  0  0  0  0  0  0  0  0  0  0
   -1.0140   12.4010  -13.2930 H   0  0  0  0  0  0  0  0  0  0  0  0
   -1.7190   12.3690  -11.6580 H   0  0  0  0  0  0  0  0  0  0  0  0
   -0.2780   11.3900  -12.0260 H   0  0  0  0  0  0  0  0  0  0  0  0
   -2.3600    9.6900  -11.6480 C   0  0  0  0  0  0  0  0  0  0  0  0
   -2.8940   10.2400  -10.8730 H   0  0  0  0  0  0  0  0  0  0  0  0
   -2.9540    8.8310  -11.9610 H   0  0  0  0  0  0  0  0  0  0  0  0
   -1.4020    9.3470  -11.2570 H   0  0  0  0  0  0  0  0  0  0  0  0
   10.6540   11.3050   -5.5760 N   0  0  0  0  0  2  0  0  0  0  0  0
   10.3920   12.2850   -5.8030 H   0  0  0  0  0  0  0  0  0  0  0  0
   10.0940   10.6720   -4.3490 C   0  0  2  0  0  0  0  0  0  0  0  0
   10.8680    9.9920   -3.9930 H   0  0  0  0  0  0  0  0  0  0  0  0
    8.8430    9.8410   -4.6350 C   0  0  0  0  0  0  0  0  0  0  0  0
    8.3760    9.1070   -3.7350 O   0  0  0  0  0  0  0  0  0  0  0  0
    9.8210   11.6790   -3.2540 C   0  0  0  0  0  0  0  0  0  0  0  0
   10.7510   12.1790   -2.9810 H   0  0  0  0  0  0  0  0  0  0  0  0
    9.1020   12.4160   -3.6110 H   0  0  0  0  0  0  0  0  0  0  0  0
    9.4140   11.1650   -2.3830 H   0  0  0  0  0  0  0  0  0  0  0  0
    8.3280    9.9240   -5.8760 N   0  0  0  0  0  0  0  0  0  0  0  0
    8.8050   10.5390   -6.5650 H   0  0  0  0  0  0  0  0  0  0  0  0
    7.1420    9.2010   -6.3060 C   0  0  2  0  0  0  0  0  0  0  0  0
    6.4000    9.3360   -5.5190 H   0  0  0  0  0  0  0  0  0  0  0  0
    7.4250    7.7530   -6.4980 C   0  0  0  0  0  0  0  0  0  0  0  0
    8.5700    7.2700   -6.4620 O   0  0  0  0  0  0  0  0  0  0  0  0
    6.6180    9.7450   -7.6390 C   0  0  0  0  0  0  0  0  0  0  0  0
    5.6190    9.3460   -7.8150 H   0  0  0  0  0  0  0  0  0  0  0  0
    7.2840    9.4210   -8.4390 H   0  0  0  0  0  0  0  0  0  0  0  0
    6.5530   11.1910   -7.6390 O   0  0  0  0  0  0  0  0  0  0  0  0
    6.2110   11.5050   -8.5140 H   0  0  0  0  0  0  0  0  0  0  0  0
    6.3550    7.0580   -6.8100 N   0  0  0  0  0  0  0  0  0  0  0  0
    5.4610    7.5640   -6.9720 H   0  0  0  0  0  0  0  0  0  0  0  0
    6.3700    5.6400   -6.9350 C   0  0  2  0  0  0  0  0  0  0  0  0
    7.1620    5.1570   -6.3640 H   0  0  0  0  0  0  0  0  0  0  0  0
    6.5790    5.3360   -8.4090 C   0  0  0  0  0  3  0  0  0  0  0  0
    6.0940    6.0730   -9.2600 O   0  0  0  0  0  0  0  0  0  0  0  0
    5.0220    5.1190   -6.4090 C   0  0  0  0  0  0  0  0  0  0  0  0
    4.2350    5.7010   -6.8870 H   0  0  0  0  0  0  0  0  0  0  0  0
    4.9330    4.0750   -6.7090 H   0  0  0  0  0  0  0  0  0  0  0  0
    4.7900    5.1880   -4.8740 C   0  0  0  0  0  0  0  0  0  0  0  0
    5.0100    6.2120   -4.5710 H   0  0  0  0  0  0  0  0  0  0  0  0
    3.3110    4.7880   -4.5700 C   0  0  0  0  0  0  0  0  0  0  0  0
    2.6380    5.4790   -5.0770 H   0  0  0  0  0  0  0  0  0  0  0  0
    3.1300    3.7740   -4.9260 H   0  0  0  0  0  0  0  0  0  0  0  0
    3.1370    4.8330   -3.4950 H   0  0  0  0  0  0  0  0  0  0  0  0
    5.7270    4.2640   -4.0560 C   0  0  0  0  0  0  0  0  0  0  0  0
    5.5710    3.2290   -4.3610 H   0  0  0  0  0  0  0  0  0  0  0  0
    6.7640    4.5460   -4.2400 H   0  0  0  0  0  0  0  0  0  0  0  0
    5.5030    4.3690   -2.9940 H   0  0  0  0  0  0  0  0  0  0  0  0
    5.3050    3.2970  -10.3550 N   0  0  0  0  0  2  0  0  0  0  0  0
    5.3190    3.2100   -9.3190 H   0  0  0  0  0  0  0  0  0  0  0  0
    4.1120    2.9140  -11.0930 C   0  0  2  0  0  0  0  0  0  0  0  0
    4.3770    2.2010  -11.8730 H   0  0  0  0  0  0  0  0  0  0  0  0
    3.5250    4.1710  -11.7290 C   0  0  0  0  0  0  0  0  0  0  0  0
    2.8290    4.0740  -12.7370 O   0  0  0  0  0  0  0  0  0  0  0  0
    3.0890    2.1810  -10.2000 C   0  0  0  0  0  0  0  0  0  0  0  0
    2.2390    1.8870  -10.8160 H   0  0  0  0  0  0  0  0  0  0  0  0
    3.5630    1.2900   -9.7890 H   0  0  0  0  0  0  0  0  0  0  0  0
    2.5850    3.0260   -9.0590 C   0  0  0  0  0  0  0  0  0  0  0  0
    3.2850    2.9380   -8.2280 H   0  0  0  0  0  0  0  0  0  0  0  0
    2.5440    4.0640   -9.3890 H   0  0  0  0  0  0  0  0  0  0  0  0
    1.2080    2.6210   -8.5730 C   0  0  0  0  0  0  0  0  0  0  0  0
    0.7530    3.4710   -8.0650 H   0  0  0  0  0  0  0  0  0  0  0  0
    0.6000    2.3470   -9.4350 H   0  0  0  0  0  0  0  0  0  0  0  0
    1.2480    1.4500   -7.6160 C   0  0  0  0  0  0  0  0  0  0  0  0
    2.1300    1.5540   -6.9850 H   0  0  0  0  0  0  0  0  0  0  0  0
    1.3270    0.5330   -8.2000 H   0  0  0  0  0  0  0  0  0  0  0  0
    0.0220    1.3380   -6.7120 N   0  0  0  0  0  4  0  0  0  0  0  0
   -0.0630    2.2000   -6.1370 H   0  0  0  0  0  0  0  0  0  0  0  0
   -0.8300    1.2250   -7.2980 H   0  0  0  0  0  0  0  0  0  0  0  0
    0.1270    0.5130   -6.0880 H   0  0  0  0  0  0  0  0  0  0  0  0
    3.8150    5.3320  -11.1570 N   0  0  0  0  0  0  0  0  0  0  0  0
    4.3440    5.3460  -10.2620 H   0  0  0  0  0  0  0  0  0  0  0  0
    3.4060    6.5700  -11.7600 C   0  0  2  0  0  0  0  0  0  0  0  0
    2.6010    6.3500  -12.4610 H   0  0  0  0  0  0  0  0  0  0  0  0
    4.5830    7.2000  -12.5340 C   0  0  0  0  0  3  0  0  0  0  0  0
    4.3900    7.6850  -13.6440 O   0  0  0  0  0  0  0  0  0  0  0  0
    2.8330    7.5740  -10.6990 C   0  0  0  0  0  0  0  0  0  0  0  0
    1.7520    7.4410  -10.6510 H   0  0  0  0  0  0  0  0  0  0  0  0
    3.2710    7.3350   -9.7300 H   0  0  0  0  0  0  0  0  0  0  0  0
    3.1220    9.0400  -11.0060 C   0  0  0  0  0  0  0  0  0  0  0  0
    2.4190    9.6990  -11.9770 C   0  0  0  0  0  0  0  0  0  0  0  0
    1.6340    9.1740  -12.5200 H   0  0  0  0  0  0  0  0  0  0  0  0
    4.1580    9.7400  -10.3510 C   0  0  0  0  0  0  0  0  0  0  0  0
    4.7460    9.2230   -9.5930 H   0  0  0  0  0  0  0  0  0  0  0  0
    2.7000   11.0760  -12.2930 C   0  0  0  0  0  0  0  0  0  0  0  0
    2.1060   11.5870  -13.0510 H   0  0  0  0  0  0  0  0  0  0  0  0
    4.4620   11.1120  -10.6520 C   0  0  0  0  0  0  0  0  0  0  0  0
    5.2550   11.6380  -10.1200 H   0  0  0  0  0  0  0  0  0  0  0  0
    3.7150   11.7570  -11.6450 C   0  0  0  0  0  0  0  0  0  0  0  0
    3.9630   13.0750  -12.0290 O   0  0  0  0  0  0  0  0  0  0  0  0
    3.3260   13.3360  -12.7410 H   0  0  0  0  0  0  0  0  0  0  0  0
   10.9780    6.3050   -4.9480 N   0  0  0  0  0  2  0  0  0  0  0  0
   10.1880    5.9880   -5.5450 H   0  0  0  0  0  0  0  0  0  0  0  0
   10.7200    6.5580   -3.5270 C   0  0  2  0  0  0  0  0  0  0  0  0
   10.9690    7.6020   -3.3390 H   0  0  0  0  0  0  0  0  0  0  0  0
   11.6250    5.7190   -2.6400 C   0  0  0  0  0  3  0  0  0  0  0  0
   12.2670    6.2920   -1.7970 O   0  0  0  0  0  0  0  0  0  0  0  0
    9.2040    6.4100   -3.1540 C   0  0  0  0  0  0  0  0  0  0  0  0
    8.6640    7.2090   -3.6620 H   0  0  0  0  0  0  0  0  0  0  0  0
    8.8680    5.4460   -3.5360 H   0  0  0  0  0  0  0  0  0  0  0  0
    8.8060    6.4750   -1.6050 C   0  0  0  0  0  0  0  0  0  0  0  0
    9.0730    5.5270   -1.1380 H   0  0  0  0  0  0  0  0  0  0  0  0
    9.3690    7.2810   -1.1350 H   0  0  0  0  0  0  0  0  0  0  0  0
    7.2710    6.7340   -1.3710 C   0  0  0  0  0  0  0  0  0  0  0  0
    6.9860    6.4380   -0.3620 H   0  0  0  0  0  0  0  0  0  0  0  0
    6.6770    6.1740   -2.0940 H   0  0  0  0  0  0  0  0  0  0  0  0
    7.0740    8.1750   -1.5550 N   0  0  0  0  0  0  0  0  0  0  0  0
    7.9010    8.7810   -1.3810 H   0  0  0  0  0  0  0  0  0  0  0  0
    5.9530    8.7950   -1.9200 C   0  0  0  0  0  0  0  0  0  0  0  0
    4.8300    8.1290   -2.1550 N   0  0  0  0  0  4  0  0  0  0  0  0
    4.8090    7.0940   -2.0560 H   0  0  0  0  0  0  0  0  0  0  0  0
    3.9710    8.6420   -2.4390 H   0  0  0  0  0  0  0  0  0  0  0  0
    5.9750   10.1110   -2.0680 N   0  0  0  0  0  0  0  0  0  0  0  0
    6.8550   10.6390   -1.9000 H   0  0  0  0  0  0  0  0  0  0  0  0
    5.1120   10.6170   -2.3520 H   0  0  0  0  0  0  0  0  0  0  0  0
   11.6800   13.6970    2.1500 N   0  0  0  0  0  2  0  0  0  0  0  0
   11.0060   14.3750    1.7400 H   0  0  0  0  0  0  0  0  0  0  0  0
   12.3750   12.7460    1.2760 C   0  0  2  0  0  0  0  0  0  0  0  0
   12.5890   11.8420    1.8460 H   0  0  0  0  0  0  0  0  0  0  0  0
   13.6730   13.4000    0.7880 C   0  0  0  0  0  3  0  0  0  0  0  0
   13.6690   14.3550    0.0170 O   0  0  0  0  0  0  0  0  0  0  0  0
   11.5200   12.3200    0.0890 C   0  0  0  0  0  0  0  0  0  0  0  0
   11.3570   13.1990   -0.5350 H   0  0  0  0  0  0  0  0  0  0  0  0
   12.0810   11.5750   -0.4740 H   0  0  0  0  0  0  0  0  0  0  0  0
   10.1640   11.7270    0.4160 C   0  0  0  0  0  0  0  0  0  0  0  0
   10.0310   10.3500    0.7370 C   0  0  0  0  0  0  0  0  0  0  0  0
   10.9170    9.7150    0.7680 H   0  0  0  0  0  0  0  0  0  0  0  0
    9.0060   12.5450    0.3790 C   0  0  0  0  0  0  0  0  0  0  0  0
    9.1020   13.6000    0.1210 H   0  0  0  0  0  0  0  0  0  0  0  0
    8.7740    9.8000    1.0140 C   0  0  0  0  0  0  0  0  0  0  0  0
    8.6750    8.7420    1.2580 H   0  0  0  0  0  0  0  0  0  0  0  0
    7.7410   12.0170    0.6690 C   0  0  0  0  0  0  0  0  0  0  0  0
    6.8570   12.6550    0.6610 H   0  0  0  0  0  0  0  0  0  0  0  0
    7.6340   10.6360    0.9730 C   0  0  0  0  0  0  0  0  0  0  0  0
    6.3730   10.1120    1.2340 O   0  0  0  0  0  0  0  0  0  0  0  0
    6.4530    9.1450    1.4290 H   0  0  0  0  0  0  0  0  0  0  0  0
    6.8140   13.4770   -8.2220 H   0  0  0  0  0  0  0  0  0  0  0  0
   -8.7350    4.5970   -6.3320 H   0  0  0  0  0  0  0  0  0  0  0  0
  1  2  1  0
  1  3  1  0
  3  4  1  6
  3  5  1  0
  3  7  1  0
  5  6  2  0
  7  8  1  0
  7  9  1  0
  7 10  1  0
 10 11  2  0
 10 12  1  0
 12250  1  0
 13 14  1  0
 13 15  1  0
 15 16  1  6
 15 17  1  0
 15 19  1  0
 17 18  2  0
 17 24  1  0
 19 20  1  0
 19 21  1  0
 19 22  1  0
 22 23  1  0
 24 25  1  0
 24 26  1  0
 26 27  1  1
 26 28  1  0
 26 30  1  0
 28 29  2  0
 28 35  1  0
 30 31  1  0
 30 32  1  0
 30 33  1  0
 33 34  1  0
 35 36  1  0
 35 37  1  0
 37 38  1  6
 37 39  1  0
 37 41  1  0
 39 40  2  0
 41 42  1  0
 41 43  1  0
 41 44  1  0
 44 45  2  0
 44 47  1  0
 45 46  1  0
 45 49  1  0
 47 48  1  0
 47 51  2  0
 49 50  1  0
 49 53  2  0
 51 52  1  0
 51 53  1  0
 53 54  1  0
 55 56  1  0
 55 57  1  0
 57 58  1  6
 57 59  1  0
 57 61  1  0
 59 60  2  0
 61 62  1  0
 61 63  1  0
 61 67  1  0
 63 64  1  0
 63 65  1  0
 63 66  1  0
 67 68  1  0
 67 69  1  0
 67 70  1  0
 71 72  1  0
 71 73  1  0
 73 74  1  1
 73 75  1  0
 73 77  1  0
 75 76  2  0
 77 78  1  6
 77 79  1  0
 77 82  1  0
 79 80  1  0
 79 81  1  0
 79 86  1  0
 82 83  1  0
 82 84  1  0
 82 85  1  0
 86 87  1  0
 86 88  1  0
 86 89  1  0
 90 91  1  0
 90 92  1  0
 92 93  1  6
 92 94  1  0
 92 96  1  0
 94 95  2  0
 96 97  1  0
 96 98  1  0
 96 99  1  0
 99100  1  0
 99101  2  0
100103  2  0
101102  1  0
101105  1  0
103104  1  0
103105  1  0
105251  1  0
106107  1  0
106108  1  0
108109  1  1
108110  1  0
108112  1  0
110111  2  0
112113  1  0
112114  1  0
112118  1  0
114115  1  0
114116  1  0
114117  1  0
118119  1  0
118120  1  0
118121  1  0
122123  1  0
122124  1  0
124125  1  1
124126  1  0
124128  1  0
126127  2  0
126132  1  0
128129  1  0
128130  1  0
128131  1  0
132133  1  0
132134  1  0
134135  1  1
134136  1  0
134138  1  0
136137  2  0
136143  1  0
138139  1  0
138140  1  0
138141  1  0
141142  1  0
143144  1  0
143145  1  0
145146  1  1
145147  1  0
145149  1  0
147148  2  0
149150  1  0
149151  1  0
149152  1  0
152153  1  0
152154  1  0
152158  1  0
154155  1  0
154156  1  0
154157  1  0
158159  1  0
158160  1  0
158161  1  0
162163  1  0
162164  1  0
164165  1  6
164166  1  0
164168  1  0
166167  2  0
166184  1  0
168169  1  0
168170  1  0
168171  1  0
171172  1  0
171173  1  0
171174  1  0
174175  1  0
174176  1  0
174177  1  0
177178  1  0
177179  1  0
177180  1  0
180181  1  0
180182  1  0
180183  1  0
184185  1  0
184186  1  0
186187  1  6
186188  1  0
186190  1  0
188189  2  0
190191  1  0
190192  1  0
190193  1  0
193194  2  0
193196  1  0
194195  1  0
194198  1  0
196197  1  0
196200  2  0
198199  1  0
198202  2  0
200201  1  0
200202  1  0
202203  1  0
203204  1  0
205206  1  0
205207  1  0
207208  1  6
207209  1  0
207211  1  0
209210  2  0
211212  1  0
211213  1  0
211214  1  0
214215  1  0
214216  1  0
214217  1  0
217218  1  0
217219  1  0
217220  1  0
220221  1  0
220222  1  0
222223  2  0
222226  1  0
223224  1  0
223225  1  0
226227  1  0
226228  1  0
229230  1  0
229231  1  0
231232  1  1
231233  1  0
231235  1  0
233234  2  0
235236  1  0
235237  1  0
235238  1  0
238239  2  0
238241  1  0
239240  1  0
239243  1  0
241242  1  0
241245  2  0
243244  1  0
243247  2  0
245246  1  0
245247  1  0
247248  1  0
248249  1  0
M  RAD  8   1   2   5   2  13   2  39   2  55   2  59   2  71   2  75   2
M  RAD  8  90   2  94   2 106   2 110   2 122   2 147   2 162   2 188   2
M  CHG  2 180   1 223   1
M  RAD  4 205   2 209   2 229   2 233   2
M  END
$$$$

     RDKit          3D

251245  0  0  0  0  0  0  0  0999 V2000
    8.2390   15.7430  -10.2460 N   0  0  0  0  0  2  0  0  0  0  0  0
    8.4060   14.8450   -9.7480 H   0  0  0  0  0  0  0  0  0  0  0  0
    7.1270   16.5820   -9.8330 C   0  0  2  0  0  0  0  0  0  0  0  0
    6.5240   16.7530  -10.7240 H   0  0  0  0  0  0  0  0  0  0  0  0
    7.5010   17.9630   -9.3590 C   0  0  0  0  0  3  0  0  0  0  0  0
    8.3130   18.1090   -8.4540 O   0  0  0  0  0  0  0  0  0  0  0  0
    6.3630   15.8620   -8.7680 C   0  0  0  0  0  0  0  0  0  0  0  0
    7.0440   15.5910   -7.9610 H   0  0  0  0  0  0  0  0  0  0  0  0
    5.5850   16.5200   -8.3800 H   0  0  0  0  0  0  0  0  0  0  0  0
    5.7360   14.6350   -9.3040 C   0  0  0  0  0  0  0  0  0  0  0  0
    4.8520   14.7920  -10.1880 O   0  0  0  0  0  0  0  0  0  0  0  0
    6.1520   13.5130   -8.8840 O   0  0  0  0  0  0  0  0  0  0  0  0
    1.6580   16.8130  -11.9920 N   0  0  0  0  0  2  0  0  0  0  0  0
    2.3630   16.6600  -11.2430 H   0  0  0  0  0  0  0  0  0  0  0  0
    0.5750   15.8710  -12.1280 C   0  0  2  0  0  0  0  0  0  0  0  0
    0.1290   15.9910  -13.1150 H   0  0  0  0  0  0  0  0  0  0  0  0
   -0.5220   16.1130  -11.1130 C   0  0  0  0  0  0  0  0  0  0  0  0
   -0.2990   16.7340  -10.0760 O   0  0  0  0  0  0  0  0  0  0  0  0
    1.1300   14.4960  -11.9520 C   0  0  0  0  0  0  0  0  0  0  0  0
    0.3140   13.7740  -11.9180 H   0  0  0  0  0  0  0  0  0  0  0  0
    1.6970   14.4460  -11.0220 H   0  0  0  0  0  0  0  0  0  0  0  0
    1.9940   14.1960  -13.0610 O   0  0  0  0  0  0  0  0  0  0  0  0
    2.3660   13.2850  -12.9510 H   0  0  0  0  0  0  0  0  0  0  0  0
   -1.7070   15.5990  -11.3820 N   0  0  0  0  0  0  0  0  0  0  0  0
   -1.8300   15.0390  -12.2500 H   0  0  0  0  0  0  0  0  0  0  0  0
   -2.8500   15.7940  -10.4960 C   0  0  2  0  0  0  0  0  0  0  0  0
   -2.4940   15.6940   -9.4710 H   0  0  0  0  0  0  0  0  0  0  0  0
   -3.9360   14.7420  -10.7100 C   0  0  0  0  0  0  0  0  0  0  0  0
   -4.1170   14.2150  -11.8220 O   0  0  0  0  0  0  0  0  0  0  0  0
   -3.4310   17.1680  -10.7260 C   0  0  0  0  0  0  0  0  0  0  0  0
   -3.6970   17.2780  -11.7770 H   0  0  0  0  0  0  0  0  0  0  0  0
   -2.6920   17.9230  -10.4590 H   0  0  0  0  0  0  0  0  0  0  0  0
   -4.5930   17.3400   -9.9250 O   0  0  0  0  0  0  0  0  0  0  0  0
   -4.9690   18.2430  -10.0800 H   0  0  0  0  0  0  0  0  0  0  0  0
   -4.6520   14.4140   -9.6350 N   0  0  0  0  0  0  0  0  0  0  0  0
   -4.3590   14.7920   -8.7110 H   0  0  0  0  0  0  0  0  0  0  0  0
   -5.8320   13.5460   -9.6910 C   0  0  2  0  0  0  0  0  0  0  0  0
   -5.6450   12.7780  -10.4420 H   0  0  0  0  0  0  0  0  0  0  0  0
   -7.0770   14.3290  -10.1220 C   0  0  0  0  0  3  0  0  0  0  0  0
   -8.0250   13.7390  -10.5890 O   0  0  0  0  0  0  0  0  0  0  0  0
   -6.0610   12.8570   -8.3570 C   0  0  0  0  0  0  0  0  0  0  0  0
   -5.9730   13.6020   -7.5670 H   0  0  0  0  0  0  0  0  0  0  0  0
   -7.0700   12.4440   -8.3540 H   0  0  0  0  0  0  0  0  0  0  0  0
   -5.0730   11.7210   -8.0610 C   0  0  0  0  0  0  0  0  0  0  0  0
   -4.0720   11.8810   -7.1020 C   0  0  0  0  0  0  0  0  0  0  0  0
   -3.9860   12.8270   -6.5670 H   0  0  0  0  0  0  0  0  0  0  0  0
   -5.1740   10.4980   -8.7080 C   0  0  0  0  0  0  0  0  0  0  0  0
   -5.9560   10.3530   -9.4530 H   0  0  0  0  0  0  0  0  0  0  0  0
   -3.1820   10.8480   -6.8190 C   0  0  0  0  0  0  0  0  0  0  0  0
   -2.4060   10.9870   -6.0660 H   0  0  0  0  0  0  0  0  0  0  0  0
   -4.2920    9.4420   -8.4250 C   0  0  0  0  0  0  0  0  0  0  0  0
   -4.4060    8.4830   -8.9310 H   0  0  0  0  0  0  0  0  0  0  0  0
   -3.2860    9.6220   -7.5080 C   0  0  0  0  0  0  0  0  0  0  0  0
   -2.5720    8.8220   -7.3140 H   0  0  0  0  0  0  0  0  0  0  0  0
   -3.3140    5.0230  -13.0570 N   0  0  0  0  0  2  0  0  0  0  0  0
   -4.1400    5.6150  -12.8370 H   0  0  0  0  0  0  0  0  0  0  0  0
   -2.5170    4.4610  -11.9940 C   0  0  2  0  0  0  0  0  0  0  0  0
   -1.7250    3.8470  -12.4230 H   0  0  0  0  0  0  0  0  0  0  0  0
   -3.4380    3.6400  -11.1070 C   0  0  0  0  0  3  0  0  0  0  0  0
   -4.4710    4.1900  -10.6370 O   0  0  0  0  0  0  0  0  0  0  0  0
   -1.8540    5.5840  -11.1350 C   0  0  0  0  0  0  0  0  0  0  0  0
   -2.6490    6.2450  -10.7900 H   0  0  0  0  0  0  0  0  0  0  0  0
   -1.1450    4.9970   -9.9330 C   0  0  0  0  0  0  0  0  0  0  0  0
   -1.8650    4.4610   -9.3150 H   0  0  0  0  0  0  0  0  0  0  0  0
   -0.3700    4.3090  -10.2700 H   0  0  0  0  0  0  0  0  0  0  0  0
   -0.6920    5.8000   -9.3520 H   0  0  0  0  0  0  0  0  0  0  0  0
   -0.8790    6.3820  -11.9530 C   0  0  0  0  0  0  0  0  0  0  0  0
   -0.0980    5.7220  -12.3300 H   0  0  0  0  0  0  0  0  0  0  0  0
   -1.4020    6.8440  -12.7900 H   0  0  0  0  0  0  0  0  0  0  0  0
   -0.4320    7.1570  -11.3300 H   0  0  0  0  0  0  0  0  0  0  0  0
   -4.5210    2.0210   -7.7850 N   0  0  0  0  0  2  0  0  0  0  0  0
   -5.4600    2.1270   -8.2190 H   0  0  0  0  0  0  0  0  0  0  0  0
   -4.3760    2.2860   -6.3400 C   0  0  2  0  0  0  0  0  0  0  0  0
   -3.3700    1.9630   -6.0710 H   0  0  0  0  0  0  0  0  0  0  0  0
   -5.3740    1.4700   -5.5200 C   0  0  0  0  0  3  0  0  0  0  0  0
   -6.6090    1.7400   -5.5300 O   0  0  0  0  0  0  0  0  0  0  0  0
   -4.4620    3.8040   -5.9870 C   0  0  2  0  0  0  0  0  0  0  0  0
   -5.4400    4.1780   -6.2900 H   0  0  0  0  0  0  0  0  0  0  0  0
   -3.3750    4.5860   -6.7450 C   0  0  0  0  0  0  0  0  0  0  0  0
   -2.4260    4.4330   -6.2310 H   0  0  0  0  0  0  0  0  0  0  0  0
   -3.3090    4.1820   -7.7550 H   0  0  0  0  0  0  0  0  0  0  0  0
   -4.3050    4.0130   -4.4580 C   0  0  0  0  0  0  0  0  0  0  0  0
   -5.1000    3.4810   -3.9360 H   0  0  0  0  0  0  0  0  0  0  0  0
   -3.3370    3.6280   -4.1370 H   0  0  0  0  0  0  0  0  0  0  0  0
   -4.3670    5.0770   -4.2300 H   0  0  0  0  0  0  0  0  0  0  0  0
   -3.6210    6.0930   -6.8510 C   0  0  0  0  0  0  0  0  0  0  0  0
   -4.5590    6.2710   -7.3760 H   0  0  0  0  0  0  0  0  0  0  0  0
   -3.6760    6.5220   -5.8510 H   0  0  0  0  0  0  0  0  0  0  0  0
   -2.8020    6.5560   -7.4010 H   0  0  0  0  0  0  0  0  0  0  0  0
   -7.1030    4.9550  -11.2140 N   0  0  0  0  0  2  0  0  0  0  0  0
   -6.1220    4.6450  -11.0650 H   0  0  0  0  0  0  0  0  0  0  0  0
   -7.3690    6.3930  -11.2260 C   0  0  2  0  0  0  0  0  0  0  0  0
   -8.4260    6.5500  -11.4390 H   0  0  0  0  0  0  0  0  0  0  0  0
   -6.5510    7.1110  -12.3230 C   0  0  0  0  0  3  0  0  0  0  0  0
   -5.3670    6.8340  -12.4820 O   0  0  0  0  0  0  0  0  0  0  0  0
   -6.9990    6.9690   -9.8590 C   0  0  0  0  0  0  0  0  0  0  0  0
   -5.9460    6.7590   -9.6690 H   0  0  0  0  0  0  0  0  0  0  0  0
   -7.1550    8.0480   -9.8840 H   0  0  0  0  0  0  0  0  0  0  0  0
   -7.8100    6.3970   -8.7320 C   0  0  0  0  0  0  0  0  0  0  0  0
   -9.1120    6.7880   -8.4820 N   0  0  0  0  0  0  0  0  0  0  0  0
   -7.5200    5.4300   -7.8250 C   0  0  0  0  0  0  0  0  0  0  0  0
   -6.5730    4.9000   -7.7210 H   0  0  0  0  0  0  0  0  0  0  0  0
   -9.5840    6.0790   -7.4730 C   0  0  0  0  0  0  0  0  0  0  0  0
  -10.5840    6.1660   -7.0470 H   0  0  0  0  0  0  0  0  0  0  0  0
   -8.6430    5.2470   -7.0660 N   0  0  0  0  0  0  0  0  0  0  0  0
   -4.3430    9.9870  -13.8600 N   0  0  0  0  0  2  0  0  0  0  0  0
   -3.9430    9.2670  -14.4950 H   0  0  0  0  0  0  0  0  0  0  0  0
   -3.4660   11.0950  -13.4060 C   0  0  2  0  0  0  0  0  0  0  0  0
   -3.9980   11.6020  -12.6010 H   0  0  0  0  0  0  0  0  0  0  0  0
   -3.1980   12.0700  -14.5610 C   0  0  0  0  0  3  0  0  0  0  0  0
   -2.6940   11.6660  -15.6100 O   0  0  0  0  0  0  0  0  0  0  0  0
   -2.1230   10.5980  -12.8370 C   0  0  0  0  0  0  0  0  0  0  0  0
   -1.6160   10.0380  -13.6230 H   0  0  0  0  0  0  0  0  0  0  0  0
   -1.2160   11.7770  -12.4230 C   0  0  0  0  0  0  0  0  0  0  0  0
   -1.0140   12.4010  -13.2930 H   0  0  0  0  0  0  0  0  0  0  0  0
   -1.7190   12.3690  -11.6580 H   0  0  0  0  0  0  0  0  0  0  0  0
   -0.2780   11.3900  -12.0260 H   0  0  0  0  0  0  0  0  0  0  0  0
   -2.3600    9.6900  -11.6480 C   0  0  0  0  0  0  0  0  0  0  0  0
   -2.8940   10.2400  -10.8730 H   0  0  0  0  0  0  0  0  0  0  0  0
   -2.9540    8.8310  -11.9610 H   0  0  0  0  0  0  0  0  0  0  0  0
   -1.4020    9.3470  -11.2570 H   0  0  0  0  0  0  0  0  0  0  0  0
   10.6540   11.3050   -5.5760 N   0  0  0  0  0  2  0  0  0  0  0  0
   10.3920   12.2850   -5.8030 H   0  0  0  0  0  0  0  0  0  0  0  0
   10.0940   10.6720   -4.3490 C   0  0  2  0  0  0  0  0  0  0  0  0
   10.8680    9.9920   -3.9930 H   0  0  0  0  0  0  0  0  0  0  0  0
    8.8430    9.8410   -4.6350 C   0  0  0  0  0  0  0  0  0  0  0  0
    8.3760    9.1070   -3.7350 O   0  0  0  0  0  0  0  0  0  0  0  0
    9.8210   11.6790   -3.2540 C   0  0  0  0  0  0  0  0  0  0  0  0
   10.7510   12.1790   -2.9810 H   0  0  0  0  0  0  0  0  0  0  0  0
    9.1020   12.4160   -3.6110 H   0  0  0  0  0  0  0  0  0  0  0  0
    9.4140   11.1650   -2.3830 H   0  0  0  0  0  0  0  0  0  0  0  0
    8.3280    9.9240   -5.8760 N   0  0  0  0  0  0  0  0  0  0  0  0
    8.8050   10.5390   -6.5650 H   0  0  0  0  0  0  0  0  0  0  0  0
    7.1420    9.2010   -6.3060 C   0  0  2  0  0  0  0  0  0  0  0  0
    6.4000    9.3360   -5.5190 H   0  0  0  0  0  0  0  0  0  0  0  0
    7.4250    7.7530   -6.4980 C   0  0  0  0  0  0  0  0  0  0  0  0
    8.5700    7.2700   -6.4620 O   0  0  0  0  0  0  0  0  0  0  0  0
    6.6180    9.7450   -7.6390 C   0  0  0  0  0  0  0  0  0  0  0  0
    5.6190    9.3460   -7.8150 H   0  0  0  0  0  0  0  0  0  0  0  0
    7.2840    9.4210   -8.4390 H   0  0  0  0  0  0  0  0  0  0  0  0
    6.5530   11.1910   -7.6390 O   0  0  0  0  0  0  0  0  0  0  0  0
    6.2110   11.5050   -8.5140 H   0  0  0  0  0  0  0  0  0  0  0  0
    6.3550    7.0580   -6.8100 N   0  0  0  0  0  0  0  0  0  0  0  0
    5.4610    7.5640   -6.9720 H   0  0  0  0  0  0  0  0  0  0  0  0
    6.3700    5.6400   -6.9350 C   0  0  2  0  0  0  0  0  0  0  0  0
    7.1620    5.1570   -6.3640 H   0  0  0  0  0  0  0  0  0  0  0  0
    6.5790    5.3360   -8.4090 C   0  0  0  0  0  3  0  0  0  0  0  0
    6.0940    6.0730   -9.2600 O   0  0  0  0  0  0  0  0  0  0  0  0
    5.0220    5.1190   -6.4090 C   0  0  0  0  0  0  0  0  0  0  0  0
    4.2350    5.7010   -6.8870 H   0  0  0  0  0  0  0  0  0  0  0  0
    4.9330    4.0750   -6.7090 H   0  0  0  0  0  0  0  0  0  0  0  0
    4.7900    5.1880   -4.8740 C   0  0  0  0  0  0  0  0  0  0  0  0
    5.0100    6.2120   -4.5710 H   0  0  0  0  0  0  0  0  0  0  0  0
    3.3110    4.7880   -4.5700 C   0  0  0  0  0  0  0  0  0  0  0  0
    2.6380    5.4790   -5.0770 H   0  0  0  0  0  0  0  0  0  0  0  0
    3.1300    3.7740   -4.9260 H   0  0  0  0  0  0  0  0  0  0  0  0
    3.1370    4.8330   -3.4950 H   0  0  0  0  0  0  0  0  0  0  0  0
    5.7270    4.2640   -4.0560 C   0  0  0  0  0  0  0  0  0  0  0  0
    5.5710    3.2290   -4.3610 H   0  0  0  0  0  0  0  0  0  0  0  0
    6.7640    4.5460   -4.2400 H   0  0  0  0  0  0  0  0  0  0  0  0
    5.5030    4.3690   -2.9940 H   0  0  0  0  0  0  0  0  0  0  0  0
    5.3050    3.2970  -10.3550 N   0  0  0  0  0  2  0  0  0  0  0  0
    5.3190    3.2100   -9.3190 H   0  0  0  0  0  0  0  0  0  0  0  0
    4.1120    2.9140  -11.0930 C   0  0  2  0  0  0  0  0  0  0  0  0
    4.3770    2.2010  -11.8730 H   0  0  0  0  0  0  0  0  0  0  0  0
    3.5250    4.1710  -11.7290 C   0  0  0  0  0  0  0  0  0  0  0  0
    2.8290    4.0740  -12.7370 O   0  0  0  0  0  0  0  0  0  0  0  0
    3.0890    2.1810  -10.2000 C   0  0  0  0  0  0  0  0  0  0  0  0
    2.2390    1.8870  -10.8160 H   0  0  0  0  0  0  0  0  0  0  0  0
    3.5630    1.2900   -9.7890 H   0  0  0  0  0  0  0  0  0  0  0  0
    2.5850    3.0260   -9.0590 C   0  0  0  0  0  0  0  0  0  0  0  0
    3.2850    2.9380   -8.2280 H   0  0  0  0  0  0  0  0  0  0  0  0
    2.5440    4.0640   -9.3890 H   0  0  0  0  0  0  0  0  0  0  0  0
    1.2080    2.6210   -8.5730 C   0  0  0  0  0  0  0  0  0  0  0  0
    0.7530    3.4710   -8.0650 H   0  0  0  0  0  0  0  0  0  0  0  0
    0.6000    2.3470   -9.4350 H   0  0  0  0  0  0  0  0  0  0  0  0
    1.2480    1.4500   -7.6160 C   0  0  0  0  0  0  0  0  0  0  0  0
    2.1300    1.5540   -6.9850 H   0  0  0  0  0  0  0  0  0  0  0  0
    1.3270    0.5330   -8.2000 H   0  0  0  0  0  0  0  0  0  0  0  0
    0.0220    1.3380   -6.7120 N   0  0  0  0  0  4  0  0  0  0  0  0
   -0.0630    2.2000   -6.1370 H   0  0  0  0  0  0  0  0  0  0  0  0
   -0.8300    1.2250   -7.2980 H   0  0  0  0  0  0  0  0  0  0  0  0
    0.1270    0.5130   -6.0880 H   0  0  0  0  0  0  0  0  0  0  0  0
    3.8150    5.3320  -11.1570 N   0  0  0  0  0  0  0  0  0  0  0  0
    4.3440    5.3460  -10.2620 H   0  0  0  0  0  0  0  0  0  0  0  0
    3.4060    6.5700  -11.7600 C   0  0  2  0  0  0  0  0  0  0  0  0
    2.6010    6.3500  -12.4610 H   0  0  0  0  0  0  0  0  0  0  0  0
    4.5830    7.2000  -12.5340 C   0  0  0  0  0  3  0  0  0  0  0  0
    4.3900    7.6850  -13.6440 O   0  0  0  0  0  0  0  0  0  0  0  0
    2.8330    7.5740  -10.6990 C   0  0  0  0  0  0  0  0  0  0  0  0
    1.7520    7.4410  -10.6510 H   0  0  0  0  0  0  0  0  0  0  0  0
    3.2710    7.3350   -9.7300 H   0  0  0  0  0  0  0  0  0  0  0  0
    3.1220    9.0400  -11.0060 C   0  0  0  0  0  0  0  0  0  0  0  0
    2.4190    9.6990  -11.9770 C   0  0  0  0  0  0  0  0  0  0  0  0
    1.6340    9.1740  -12.5200 H   0  0  0  0  0  0  0  0  0  0  0  0
    4.1580    9.7400  -10.3510 C   0  0  0  0  0  0  0  0  0  0  0  0
    4.7460    9.2230   -9.5930 H   0  0  0  0  0  0  0  0  0  0  0  0
    2.7000   11.0760  -12.2930 C   0  0  0  0  0  0  0  0  0  0  0  0
    2.1060   11.5870  -13.0510 H   0  0  0  0  0  0  0  0  0  0  0  0
    4.4620   11.1120  -10.6520 C   0  0  0  0  0  0  0  0  0  0  0  0
    5.2550   11.6380  -10.1200 H   0  0  0  0  0  0  0  0  0  0  0  0
    3.7150   11.7570  -11.6450 C   0  0  0  0  0  0  0  0  0  0  0  0
    3.9630   13.0750  -12.0290 O   0  0  0  0  0  0  0  0  0  0  0  0
    3.3260   13.3360  -12.7410 H   0  0  0  0  0  0  0  0  0  0  0  0
   10.9780    6.3050   -4.9480 N   0  0  0  0  0  2  0  0  0  0  0  0
   10.1880    5.9880   -5.5450 H   0  0  0  0  0  0  0  0  0  0  0  0
   10.7200    6.5580   -3.5270 C   0  0  2  0  0  0  0  0  0  0  0  0
   10.9690    7.6020   -3.3390 H   0  0  0  0  0  0  0  0  0  0  0  0
   11.6250    5.7190   -2.6400 C   0  0  0  0  0  3  0  0  0  0  0  0
   12.2670    6.2920   -1.7970 O   0  0  0  0  0  0  0  0  0  0  0  0
    9.2040    6.4100   -3.1540 C   0  0  0  0  0  0  0  0  0  0  0  0
    8.6640    7.2090   -3.6620 H   0  0  0  0  0  0  0  0  0  0  0  0
    8.8680    5.4460   -3.5360 H   0  0  0  0  0  0  0  0  0  0  0  0
    8.8060    6.4750   -1.6050 C   0  0  0  0  0  0  0  0  0  0  0  0
    9.0730    5.5270   -1.1380 H   0  0  0  0  0  0  0  0  0  0  0  0
    9.3690    7.2810   -1.1350 H   0  0  0  0  0  0  0  0  0  0  0  0
    7.2710    6.7340   -1.3710 C   0  0  0  0  0  0  0  0  0  0  0  0
    6.9860    6.4380   -0.3620 H   0  0  0  0  0  0  0  0  0  0  0  0
    6.6770    6.1740   -2.0940 H   0  0  0  0  0  0  0  0  0  0  0  0
    7.0740    8.1750   -1.5550 N   0  0  0  0  0  0  0  0  0  0  0  0
    7.9010    8.7810   -1.3810 H   0  0  0  0  0  0  0  0  0  0  0  0
    5.9530    8.7950   -1.9200 C   0  0  0  0  0  0  0  0  0  0  0  0
    4.8300    8.1290   -2.1550 N   0  0  0  0  0  4  0  0  0  0  0  0
    4.8090    7.0940   -2.0560 H   0  0  0  0  0  0  0  0  0  0  0  0
    3.9710    8.6420   -2.4390 H   0  0  0  0  0  0  0  0  0  0  0  0
    5.9750   10.1110   -2.0680 N   0  0  0  0  0  0  0  0  0  0  0  0
    6.8550   10.6390   -1.9000 H   0  0  0  0  0  0  0  0  0  0  0  0
    5.1120   10.6170   -2.3520 H   0  0  0  0  0  0  0  0  0  0  0  0
   11.6800   13.6970    2.1500 N   0  0  0  0  0  2  0  0  0  0  0  0
   11.0060   14.3750    1.7400 H   0  0  0  0  0  0  0  0  0  0  0  0
   12.3750   12.7460    1.2760 C   0  0  2  0  0  0  0  0  0  0  0  0
   12.5890   11.8420    1.8460 H   0  0  0  0  0  0  0  0  0  0  0  0
   13.6730   13.4000    0.7880 C   0  0  0  0  0  3  0  0  0  0  0  0
   13.6690   14.3550    0.0170 O   0  0  0  0  0  0  0  0  0  0  0  0
   11.5200   12.3200    0.0890 C   0  0  0  0  0  0  0  0  0  0  0  0
   11.3570   13.1990   -0.5350 H   0  0  0  0  0  0  0  0  0  0  0  0
   12.0810   11.5750   -0.4740 H   0  0  0  0  0  0  0  0  0  0  0  0
   10.1640   11.7270    0.4160 C   0  0  0  0  0  0  0  0  0  0  0  0
   10.0310   10.3500    0.7370 C   0  0  0  0  0  0  0  0  0  0  0  0
   10.9170    9.7150    0.7680 H   0  0  0  0  0  0  0  0  0  0  0  0
    9.0060   12.5450    0.3790 C   0  0  0  0  0  0  0  0  0  0  0  0
    9.1020   13.6000    0.1210 H   0  0  0  0  0  0  0  0  0  0  0  0
    8.7740    9.8000    1.0140 C   0  0  0  0  0  0  0  0  0  0  0  0
    8.6750    8.7420    1.2580 H   0  0  0  0  0  0  0  0  0  0  0  0
    7.7410   12.0170    0.6690 C   0  0  0  0  0  0  0  0  0  0  0  0
    6.8570   12.6550    0.6610 H   0  0  0  0  0  0  0  0  0  0  0  0
    7.6340   10.6360    0.9730 C   0  0  0  0  0  0  0  0  0  0  0  0
    6.3730   10.1120    1.2340 O   0  0  0  0  0  0  0  0  0  0  0  0
    6.4530    9.1450    1.4290 H   0  0  0  0  0  0  0  0  0  0  0  0
    6.8140   13.4770   -8.2220 H   0  0  0  0  0  0  0  0  0  0  0  0
   -8.7350    4.5970   -6.3320 H   0  0  0  0  0  0  0  0  0  0  0  0
  1  2  1  0
  1  3  1  0
  3  4  1  6
  3  5  1  0
  3  7  1  0
  5  6  2  0
  7  8  1  0
  7  9  1  0
  7 10  1  0
 10 11  2  0
 10 12  1  0
 12250  1  0
 13 14  1  0
 13 15  1  0
 15 16  1  6
 15 17  1  0
 15 19  1  0
 17 18  2  0
 17 24  1  0
 19 20  1  0
 19 21  1  0
 19 22  1  0
 22 23  1  0
 24 25  1  0
 24 26  1  0
 26 27  1  1
 26 28  1  0
 26 30  1  0
 28 29  2  0
 28 35  1  0
 30 31  1  0
 30 32  1  0
 30 33  1  0
 33 34  1  0
 35 36  1  0
 35 37  1  0
 37 38  1  6
 37 39  1  0
 37 41  1  0
 39 40  2  0
 41 42  1  0
 41 43  1  0
 41 44  1  0
 44 45  2  0
 44 47  1  0
 45 46  1  0
 45 49  1  0
 47 48  1  0
 47 51  2  0
 49 50  1  0
 49 53  2  0
 51 52  1  0
 51 53  1  0
 53 54  1  0
 55 56  1  0
 55 57  1  0
 57 58  1  6
 57 59  1  0
 57 61  1  0
 59 60  2  0
 61 62  1  0
 61 63  1  0
 61 67  1  0
 63 64  1  0
 63 65  1  0
 63 66  1  0
 67 68  1  0
 67 69  1  0
 67 70  1  0
 71 72  1  0
 71 73  1  0
 73 74  1  1
 73 75  1  0
 73 77  1  0
 75 76  2  0
 77 78  1  6
 77 79  1  0
 77 82  1  0
 79 80  1  0
 79 81  1  0
 79 86  1  0
 82 83  1  0
 82 84  1  0
 82 85  1  0
 86 87  1  0
 86 88  1  0
 86 89  1  0
 90 91  1  0
 90 92  1  0
 92 93  1  6
 92 94  1  0
 92 96  1  0
 94 95  2  0
 96 97  1  0
 96 98  1  0
 96 99  1  0
 99100  1  0
 99101  2  0
100103  2  0
101102  1  0
101105  1  0
103104  1  0
103105  1  0
105251  1  0
106107  1  0
106108  1  0
108109  1  1
108110  1  0
108112  1  0
110111  2  0
112113  1  0
112114  1  0
112118  1  0
114115  1  0
114116  1  0
114117  1  0
118119  1  0
118120  1  0
118121  1  0
122123  1  0
122124  1  0
124125  1  1
124126  1  0
124128  1  0
126127  2  0
126132  1  0
128129  1  0
128130  1  0
128131  1  0
132133  1  0
132134  1  0
134135  1  1
134136  1  0
134138  1  0
136137  2  0
136143  1  0
138139  1  0
138140  1  0
138141  1  0
141142  1  0
143144  1  0
143145  1  0
145146  1  1
145147  1  0
145149  1  0
147148  2  0
149150  1  0
149151  1  0
149152  1  0
152153  1  0
152154  1  0
152158  1  0
154155  1  0
154156  1  0
154157  1  0
158159  1  0
158160  1  0
158161  1  0
162163  1  0
162164  1  0
164165  1  6
164166  1  0
164168  1  0
166167  2  0
166184  1  0
168169  1  0
168170  1  0
168171  1  0
171172  1  0
171173  1  0
171174  1  0
174175  1  0
174176  1  0
174177  1  0
177178  1  0
177179  1  0
177180  1  0
180181  1  0
180182  1  0
180183  1  0
184185  1  0
184186  1  0
186187  1  6
186188  1  0
186190  1  0
188189  2  0
190191  1  0
190192  1  0
190193  1  0
193194  2  0
193196  1  0
194195  1  0
194198  1  0
196197  1  0
196200  2  0
198199  1  0
198202  2  0
200201  1  0
200202  1  0
202203  1  0
203204  1  0
205206  1  0
205207  1  0
207208  1  6
207209  1  0
207211  1  0
209210  2  0
211212  1  0
211213  1  0
211214  1  0
214215  1  0
214216  1  0
214217  1  0
217218  1  0
217219  1  0
217220  1  0
220221  1  0
220222  1  0
222223  2  0
222226  1  0
223224  1  0
223225  1  0
226227  1  0
226228  1  0
229230  1  0
229231  1  0
231232  1  1
231233  1  0
231235  1  0
233234  2  0
235236  1  0
235237  1  0
235238  1  0
238239  2  0
238241  1  0
239240  1  0
239243  1  0
241242  1  0
241245  2  0
243244  1  0
243247  2  0
245246  1  0
245247  1  0
247248  1  0
248249  1  0
M  RAD  8   1   2   5   2  13   2  39   2  55   2  59   2  71   2  75   2
M  RAD  8  90   2  94   2 106   2 110   2 122   2 147   2 162   2 188   2
M  CHG  2 180   1 223   1
M  RAD  4 205   2 209   2 229   2 233   2
M  END
$$$$

     RDKit          3D

251245  0  0  0  0  0  0  0  0999 V2000
    8.2390   15.7430  -10.2460 N   0  0  0  0  0  2  0  0  0  0  0  0
    8.4060   14.8450   -9.7480 H   0  0  0  0  0  0  0  0  0  0  0  0
    7.1270   16.5820   -9.8330 C   0  0  2  0  0  0  0  0  0  0  0  0
    6.5240   16.7530  -10.7240 H   0  0  0  0  0  0  0  0  0  0  0  0
    7.5010   17.9630   -9.3590 C   0  0  0  0  0  3  0  0  0  0  0  0
    8.3130   18.1090   -8.4540 O   0  0  0  0  0  0  0  0  0  0  0  0
    6.3630   15.8620   -8.7680 C   0  0  0  0  0  0  0  0  0  0  0  0
    7.0440   15.5910   -7.9610 H   0  0  0  0  0  0  0  0  0  0  0  0
    5.5850   16.5200   -8.3800 H   0  0  0  0  0  0  0  0  0  0  0  0
    5.7360   14.6350   -9.3040 C   0  0  0  0  0  0  0  0  0  0  0  0
    4.8520   14.7920  -10.1880 O   0  0  0  0  0  0  0  0  0  0  0  0
    6.1520   13.5130   -8.8840 O   0  0  0  0  0  0  0  0  0  0  0  0
    1.6580   16.8130  -11.9920 N   0  0  0  0  0  2  0  0  0  0  0  0
    2.3630   16.6600  -11.2430 H   0  0  0  0  0  0  0  0  0  0  0  0
    0.5750   15.8710  -12.1280 C   0  0  2  0  0  0  0  0  0  0  0  0
    0.1290   15.9910  -13.1150 H   0  0  0  0  0  0  0  0  0  0  0  0
   -0.5220   16.1130  -11.1130 C   0  0  0  0  0  0  0  0  0  0  0  0
   -0.2990   16.7340  -10.0760 O   0  0  0  0  0  0  0  0  0  0  0  0
    1.1300   14.4960  -11.9520 C   0  0  0  0  0  0  0  0  0  0  0  0
    0.3140   13.7740  -11.9180 H   0  0  0  0  0  0  0  0  0  0  0  0
    1.6970   14.4460  -11.0220 H   0  0  0  0  0  0  0  0  0  0  0  0
    1.9940   14.1960  -13.0610 O   0  0  0  0  0  0  0  0  0  0  0  0
    2.3660   13.2850  -12.9510 H   0  0  0  0  0  0  0  0  0  0  0  0
   -1.7070   15.5990  -11.3820 N   0  0  0  0  0  0  0  0  0  0  0  0
   -1.8300   15.0390  -12.2500 H   0  0  0  0  0  0  0  0  0  0  0  0
   -2.8500   15.7940  -10.4960 C   0  0  2  0  0  0  0  0  0  0  0  0
   -2.4940   15.6940   -9.4710 H   0  0  0  0  0  0  0  0  0  0  0  0
   -3.9360   14.7420  -10.7100 C   0  0  0  0  0  0  0  0  0  0  0  0
   -4.1170   14.2150  -11.8220 O   0  0  0  0  0  0  0  0  0  0  0  0
   -3.4310   17.1680  -10.7260 C   0  0  0  0  0  0  0  0  0  0  0  0
   -3.6970   17.2780  -11.7770 H   0  0  0  0  0  0  0  0  0  0  0  0
   -2.6920   17.9230  -10.4590 H   0  0  0  0  0  0  0  0  0  0  0  0
   -4.5930   17.3400   -9.9250 O   0  0  0  0  0  0  0  0  0  0  0  0
   -4.9690   18.2430  -10.0800 H   0  0  0  0  0  0  0  0  0  0  0  0
   -4.6520   14.4140   -9.6350 N   0  0  0  0  0  0  0  0  0  0  0  0
   -4.3590   14.7920   -8.7110 H   0  0  0  0  0  0  0  0  0  0  0  0
   -5.8320   13.5460   -9.6910 C   0  0  2  0  0  0  0  0  0  0  0  0
   -5.6450   12.7780  -10.4420 H   0  0  0  0  0  0  0  0  0  0  0  0
   -7.0770   14.3290  -10.1220 C   0  0  0  0  0  3  0  0  0  0  0  0
   -8.0250   13.7390  -10.5890 O   0  0  0  0  0  0  0  0  0  0  0  0
   -6.0610   12.8570   -8.3570 C   0  0  0  0  0  0  0  0  0  0  0  0
   -5.9730   13.6020   -7.5670 H   0  0  0  0  0  0  0  0  0  0  0  0
   -7.0700   12.4440   -8.3540 H   0  0  0  0  0  0  0  0  0  0  0  0
   -5.0730   11.7210   -8.0610 C   0  0  0  0  0  0  0  0  0  0  0  0
   -4.0720   11.8810   -7.1020 C   0  0  0  0  0  0  0  0  0  0  0  0
   -3.9860   12.8270   -6.5670 H   0  0  0  0  0  0  0  0  0  0  0  0
   -5.1740   10.4980   -8.7080 C   0  0  0  0  0  0  0  0  0  0  0  0
   -5.9560   10.3530   -9.4530 H   0  0  0  0  0  0  0  0  0  0  0  0
   -3.1820   10.8480   -6.8190 C   0  0  0  0  0  0  0  0  0  0  0  0
   -2.4060   10.9870   -6.0660 H   0  0  0  0  0  0  0  0  0  0  0  0
   -4.2920    9.4420   -8.4250 C   0  0  0  0  0  0  0  0  0  0  0  0
   -4.4060    8.4830   -8.9310 H   0  0  0  0  0  0  0  0  0  0  0  0
   -3.2860    9.6220   -7.5080 C   0  0  0  0  0  0  0  0  0  0  0  0
   -2.5720    8.8220   -7.3140 H   0  0  0  0  0  0  0  0  0  0  0  0
   -3.3140    5.0230  -13.0570 N   0  0  0  0  0  2  0  0  0  0  0  0
   -4.1400    5.6150  -12.8370 H   0  0  0  0  0  0  0  0  0  0  0  0
   -2.5170    4.4610  -11.9940 C   0  0  2  0  0  0  0  0  0  0  0  0
   -1.7250    3.8470  -12.4230 H   0  0  0  0  0  0  0  0  0  0  0  0
   -3.4380    3.6400  -11.1070 C   0  0  0  0  0  3  0  0  0  0  0  0
   -4.4710    4.1900  -10.6370 O   0  0  0  0  0  0  0  0  0  0  0  0
   -1.8540    5.5840  -11.1350 C   0  0  0  0  0  0  0  0  0  0  0  0
   -2.6490    6.2450  -10.7900 H   0  0  0  0  0  0  0  0  0  0  0  0
   -1.1450    4.9970   -9.9330 C   0  0  0  0  0  0  0  0  0  0  0  0
   -1.8650    4.4610   -9.3150 H   0  0  0  0  0  0  0  0  0  0  0  0
   -0.3700    4.3090  -10.2700 H   0  0  0  0  0  0  0  0  0  0  0  0
   -0.6920    5.8000   -9.3520 H   0  0  0  0  0  0  0  0  0  0  0  0
   -0.8790    6.3820  -11.9530 C   0  0  0  0  0  0  0  0  0  0  0  0
   -0.0980    5.7220  -12.3300 H   0  0  0  0  0  0  0  0  0  0  0  0
   -1.4020    6.8440  -12.7900 H   0  0  0  0  0  0  0  0  0  0  0  0
   -0.4320    7.1570  -11.3300 H   0  0  0  0  0  0  0  0  0  0  0  0
   -4.5210    2.0210   -7.7850 N   0  0  0  0  0  2  0  0  0  0  0  0
   -5.4600    2.1270   -8.2190 H   0  0  0  0  0  0  0  0  0  0  0  0
   -4.3760    2.2860   -6.3400 C   0  0  2  0  0  0  0  0  0  0  0  0
   -3.3700    1.9630   -6.0710 H   0  0  0  0  0  0  0  0  0  0  0  0
   -5.3740    1.4700   -5.5200 C   0  0  0  0  0  3  0  0  0  0  0  0
   -6.6090    1.7400   -5.5300 O   0  0  0  0  0  0  0  0  0  0  0  0
   -4.4620    3.8040   -5.9870 C   0  0  2  0  0  0  0  0  0  0  0  0
   -5.4400    4.1780   -6.2900 H   0  0  0  0  0  0  0  0  0  0  0  0
   -3.3750    4.5860   -6.7450 C   0  0  0  0  0  0  0  0  0  0  0  0
   -2.4260    4.4330   -6.2310 H   0  0  0  0  0  0  0  0  0  0  0  0
   -3.3090    4.1820   -7.7550 H   0  0  0  0  0  0  0  0  0  0  0  0
   -4.3050    4.0130   -4.4580 C   0  0  0  0  0  0  0  0  0  0  0  0
   -5.1000    3.4810   -3.9360 H   0  0  0  0  0  0  0  0  0  0  0  0
   -3.3370    3.6280   -4.1370 H   0  0  0  0  0  0  0  0  0  0  0  0
   -4.3670    5.0770   -4.2300 H   0  0  0  0  0  0  0  0  0  0  0  0
   -3.6210    6.0930   -6.8510 C   0  0  0  0  0  0  0  0  0  0  0  0
   -4.5590    6.2710   -7.3760 H   0  0  0  0  0  0  0  0  0  0  0  0
   -3.6760    6.5220   -5.8510 H   0  0  0  0  0  0  0  0  0  0  0  0
   -2.8020    6.5560   -7.4010 H   0  0  0  0  0  0  0  0  0  0  0  0
   -7.1030    4.9550  -11.2140 N   0  0  0  0  0  2  0  0  0  0  0  0
   -6.1220    4.6450  -11.0650 H   0  0  0  0  0  0  0  0  0  0  0  0
   -7.3690    6.3930  -11.2260 C   0  0  2  0  0  0  0  0  0  0  0  0
   -8.4260    6.5500  -11.4390 H   0  0  0  0  0  0  0  0  0  0  0  0
   -6.5510    7.1110  -12.3230 C   0  0  0  0  0  3  0  0  0  0  0  0
   -5.3670    6.8340  -12.4820 O   0  0  0  0  0  0  0  0  0  0  0  0
   -6.9990    6.9690   -9.8590 C   0  0  0  0  0  0  0  0  0  0  0  0
   -5.9460    6.7590   -9.6690 H   0  0  0  0  0  0  0  0  0  0  0  0
   -7.1550    8.0480   -9.8840 H   0  0  0  0  0  0  0  0  0  0  0  0
   -7.8100    6.3970   -8.7320 C   0  0  0  0  0  0  0  0  0  0  0  0
   -9.1120    6.7880   -8.4820 N   0  0  0  0  0  0  0  0  0  0  0  0
   -7.5200    5.4300   -7.8250 C   0  0  0  0  0  0  0  0  0  0  0  0
   -6.5730    4.9000   -7.7210 H   0  0  0  0  0  0  0  0  0  0  0  0
   -9.5840    6.0790   -7.4730 C   0  0  0  0  0  0  0  0  0  0  0  0
  -10.5840    6.1660   -7.0470 H   0  0  0  0  0  0  0  0  0  0  0  0
   -8.6430    5.2470   -7.0660 N   0  0  0  0  0  0  0  0  0  0  0  0
   -4.3430    9.9870  -13.8600 N   0  0  0  0  0  2  0  0  0  0  0  0
   -3.9430    9.2670  -14.4950 H   0  0  0  0  0  0  0  0  0  0  0  0
   -3.4660   11.0950  -13.4060 C   0  0  2  0  0  0  0  0  0  0  0  0
   -3.9980   11.6020  -12.6010 H   0  0  0  0  0  0  0  0  0  0  0  0
   -3.1980   12.0700  -14.5610 C   0  0  0  0  0  3  0  0  0  0  0  0
   -2.6940   11.6660  -15.6100 O   0  0  0  0  0  0  0  0  0  0  0  0
   -2.1230   10.5980  -12.8370 C   0  0  0  0  0  0  0  0  0  0  0  0
   -1.6160   10.0380  -13.6230 H   0  0  0  0  0  0  0  0  0  0  0  0
   -1.2160   11.7770  -12.4230 C   0  0  0  0  0  0  0  0  0  0  0  0
   -1.0140   12.4010  -13.2930 H   0  0  0  0  0  0  0  0  0  0  0  0
   -1.7190   12.3690  -11.6580 H   0  0  0  0  0  0  0  0  0  0  0  0
   -0.2780   11.3900  -12.0260 H   0  0  0  0  0  0  0  0  0  0  0  0
   -2.3600    9.6900  -11.6480 C   0  0  0  0  0  0  0  0  0  0  0  0
   -2.8940   10.2400  -10.8730 H   0  0  0  0  0  0  0  0  0  0  0  0
   -2.9540    8.8310  -11.9610 H   0  0  0  0  0  0  0  0  0  0  0  0
   -1.4020    9.3470  -11.2570 H   0  0  0  0  0  0  0  0  0  0  0  0
   10.6540   11.3050   -5.5760 N   0  0  0  0  0  2  0  0  0  0  0  0
   10.3920   12.2850   -5.8030 H   0  0  0  0  0  0  0  0  0  0  0  0
   10.0940   10.6720   -4.3490 C   0  0  2  0  0  0  0  0  0  0  0  0
   10.8680    9.9920   -3.9930 H   0  0  0  0  0  0  0  0  0  0  0  0
    8.8430    9.8410   -4.6350 C   0  0  0  0  0  0  0  0  0  0  0  0
    8.3760    9.1070   -3.7350 O   0  0  0  0  0  0  0  0  0  0  0  0
    9.8210   11.6790   -3.2540 C   0  0  0  0  0  0  0  0  0  0  0  0
   10.7510   12.1790   -2.9810 H   0  0  0  0  0  0  0  0  0  0  0  0
    9.1020   12.4160   -3.6110 H   0  0  0  0  0  0  0  0  0  0  0  0
    9.4140   11.1650   -2.3830 H   0  0  0  0  0  0  0  0  0  0  0  0
    8.3280    9.9240   -5.8760 N   0  0  0  0  0  0  0  0  0  0  0  0
    8.8050   10.5390   -6.5650 H   0  0  0  0  0  0  0  0  0  0  0  0
    7.1420    9.2010   -6.3060 C   0  0  2  0  0  0  0  0  0  0  0  0
    6.4000    9.3360   -5.5190 H   0  0  0  0  0  0  0  0  0  0  0  0
    7.4250    7.7530   -6.4980 C   0  0  0  0  0  0  0  0  0  0  0  0
    8.5700    7.2700   -6.4620 O   0  0  0  0  0  0  0  0  0  0  0  0
    6.6180    9.7450   -7.6390 C   0  0  0  0  0  0  0  0  0  0  0  0
    5.6190    9.3460   -7.8150 H   0  0  0  0  0  0  0  0  0  0  0  0
    7.2840    9.4210   -8.4390 H   0  0  0  0  0  0  0  0  0  0  0  0
    6.5530   11.1910   -7.6390 O   0  0  0  0  0  0  0  0  0  0  0  0
    6.2110   11.5050   -8.5140 H   0  0  0  0  0  0  0  0  0  0  0  0
    6.3550    7.0580   -6.8100 N   0  0  0  0  0  0  0  0  0  0  0  0
    5.4610    7.5640   -6.9720 H   0  0  0  0  0  0  0  0  0  0  0  0
    6.3700    5.6400   -6.9350 C   0  0  2  0  0  0  0  0  0  0  0  0
    7.1620    5.1570   -6.3640 H   0  0  0  0  0  0  0  0  0  0  0  0
    6.5790    5.3360   -8.4090 C   0  0  0  0  0  3  0  0  0  0  0  0
    6.0940    6.0730   -9.2600 O   0  0  0  0  0  0  0  0  0  0  0  0
    5.0220    5.1190   -6.4090 C   0  0  0  0  0  0  0  0  0  0  0  0
    4.2350    5.7010   -6.8870 H   0  0  0  0  0  0  0  0  0  0  0  0
    4.9330    4.0750   -6.7090 H   0  0  0  0  0  0  0  0  0  0  0  0
    4.7900    5.1880   -4.8740 C   0  0  0  0  0  0  0  0  0  0  0  0
    5.0100    6.2120   -4.5710 H   0  0  0  0  0  0  0  0  0  0  0  0
    3.3110    4.7880   -4.5700 C   0  0  0  0  0  0  0  0  0  0  0  0
    2.6380    5.4790   -5.0770 H   0  0  0  0  0  0  0  0  0  0  0  0
    3.1300    3.7740   -4.9260 H   0  0  0  0  0  0  0  0  0  0  0  0
    3.1370    4.8330   -3.4950 H   0  0  0  0  0  0  0  0  0  0  0  0
    5.7270    4.2640   -4.0560 C   0  0  0  0  0  0  0  0  0  0  0  0
    5.5710    3.2290   -4.3610 H   0  0  0  0  0  0  0  0  0  0  0  0
    6.7640    4.5460   -4.2400 H   0  0  0  0  0  0  0  0  0  0  0  0
    5.5030    4.3690   -2.9940 H   0  0  0  0  0  0  0  0  0  0  0  0
    5.3050    3.2970  -10.3550 N   0  0  0  0  0  2  0  0  0  0  0  0
    5.3190    3.2100   -9.3190 H   0  0  0  0  0  0  0  0  0  0  0  0
    4.1120    2.9140  -11.0930 C   0  0  2  0  0  0  0  0  0  0  0  0
    4.3770    2.2010  -11.8730 H   0  0  0  0  0  0  0  0  0  0  0  0
    3.5250    4.1710  -11.7290 C   0  0  0  0  0  0  0  0  0  0  0  0
    2.8290    4.0740  -12.7370 O   0  0  0  0  0  0  0  0  0  0  0  0
    3.0890    2.1810  -10.2000 C   0  0  0  0  0  0  0  0  0  0  0  0
    2.2390    1.8870  -10.8160 H   0  0  0  0  0  0  0  0  0  0  0  0
    3.5630    1.2900   -9.7890 H   0  0  0  0  0  0  0  0  0  0  0  0
    2.5850    3.0260   -9.0590 C   0  0  0  0  0  0  0  0  0  0  0  0
    3.2850    2.9380   -8.2280 H   0  0  0  0  0  0  0  0  0  0  0  0
    2.5440    4.0640   -9.3890 H   0  0  0  0  0  0  0  0  0  0  0  0
    1.2080    2.6210   -8.5730 C   0  0  0  0  0  0  0  0  0  0  0  0
    0.7530    3.4710   -8.0650 H   0  0  0  0  0  0  0  0  0  0  0  0
    0.6000    2.3470   -9.4350 H   0  0  0  0  0  0  0  0  0  0  0  0
    1.2480    1.4500   -7.6160 C   0  0  0  0  0  0  0  0  0  0  0  0
    2.1300    1.5540   -6.9850 H   0  0  0  0  0  0  0  0  0  0  0  0
    1.3270    0.5330   -8.2000 H   0  0  0  0  0  0  0  0  0  0  0  0
    0.0220    1.3380   -6.7120 N   0  0  0  0  0  4  0  0  0  0  0  0
   -0.0630    2.2000   -6.1370 H   0  0  0  0  0  0  0  0  0  0  0  0
   -0.8300    1.2250   -7.2980 H   0  0  0  0  0  0  0  0  0  0  0  0
    0.1270    0.5130   -6.0880 H   0  0  0  0  0  0  0  0  0  0  0  0
    3.8150    5.3320  -11.1570 N   0  0  0  0  0  0  0  0  0  0  0  0
    4.3440    5.3460  -10.2620 H   0  0  0  0  0  0  0  0  0  0  0  0
    3.4060    6.5700  -11.7600 C   0  0  2  0  0  0  0  0  0  0  0  0
    2.6010    6.3500  -12.4610 H   0  0  0  0  0  0  0  0  0  0  0  0
    4.5830    7.2000  -12.5340 C   0  0  0  0  0  3  0  0  0  0  0  0
    4.3900    7.6850  -13.6440 O   0  0  0  0  0  0  0  0  0  0  0  0
    2.8330    7.5740  -10.6990 C   0  0  0  0  0  0  0  0  0  0  0  0
    1.7520    7.4410  -10.6510 H   0  0  0  0  0  0  0  0  0  0  0  0
    3.2710    7.3350   -9.7300 H   0  0  0  0  0  0  0  0  0  0  0  0
    3.1220    9.0400  -11.0060 C   0  0  0  0  0  0  0  0  0  0  0  0
    2.4190    9.6990  -11.9770 C   0  0  0  0  0  0  0  0  0  0  0  0
    1.6340    9.1740  -12.5200 H   0  0  0  0  0  0  0  0  0  0  0  0
    4.1580    9.7400  -10.3510 C   0  0  0  0  0  0  0  0  0  0  0  0
    4.7460    9.2230   -9.5930 H   0  0  0  0  0  0  0  0  0  0  0  0
    2.7000   11.0760  -12.2930 C   0  0  0  0  0  0  0  0  0  0  0  0
    2.1060   11.5870  -13.0510 H   0  0  0  0  0  0  0  0  0  0  0  0
    4.4620   11.1120  -10.6520 C   0  0  0  0  0  0  0  0  0  0  0  0
    5.2550   11.6380  -10.1200 H   0  0  0  0  0  0  0  0  0  0  0  0
    3.7150   11.7570  -11.6450 C   0  0  0  0  0  0  0  0  0  0  0  0
    3.9630   13.0750  -12.0290 O   0  0  0  0  0  0  0  0  0  0  0  0
    3.3260   13.3360  -12.7410 H   0  0  0  0  0  0  0  0  0  0  0  0
   10.9780    6.3050   -4.9480 N   0  0  0  0  0  2  0  0  0  0  0  0
   10.1880    5.9880   -5.5450 H   0  0  0  0  0  0  0  0  0  0  0  0
   10.7200    6.5580   -3.5270 C   0  0  2  0  0  0  0  0  0  0  0  0
   10.9690    7.6020   -3.3390 H   0  0  0  0  0  0  0  0  0  0  0  0
   11.6250    5.7190   -2.6400 C   0  0  0  0  0  3  0  0  0  0  0  0
   12.2670    6.2920   -1.7970 O   0  0  0  0  0  0  0  0  0  0  0  0
    9.2040    6.4100   -3.1540 C   0  0  0  0  0  0  0  0  0  0  0  0
    8.6640    7.2090   -3.6620 H   0  0  0  0  0  0  0  0  0  0  0  0
    8.8680    5.4460   -3.5360 H   0  0  0  0  0  0  0  0  0  0  0  0
    8.8060    6.4750   -1.6050 C   0  0  0  0  0  0  0  0  0  0  0  0
    9.0730    5.5270   -1.1380 H   0  0  0  0  0  0  0  0  0  0  0  0
    9.3690    7.2810   -1.1350 H   0  0  0  0  0  0  0  0  0  0  0  0
    7.2710    6.7340   -1.3710 C   0  0  0  0  0  0  0  0  0  0  0  0
    6.9860    6.4380   -0.3620 H   0  0  0  0  0  0  0  0  0  0  0  0
    6.6770    6.1740   -2.0940 H   0  0  0  0  0  0  0  0  0  0  0  0
    7.0740    8.1750   -1.5550 N   0  0  0  0  0  0  0  0  0  0  0  0
    7.9010    8.7810   -1.3810 H   0  0  0  0  0  0  0  0  0  0  0  0
    5.9530    8.7950   -1.9200 C   0  0  0  0  0  0  0  0  0  0  0  0
    4.8300    8.1290   -2.1550 N   0  0  0  0  0  4  0  0  0  0  0  0
    4.8090    7.0940   -2.0560 H   0  0  0  0  0  0  0  0  0  0  0  0
    3.9710    8.6420   -2.4390 H   0  0  0  0  0  0  0  0  0  0  0  0
    5.9750   10.1110   -2.0680 N   0  0  0  0  0  0  0  0  0  0  0  0
    6.8550   10.6390   -1.9000 H   0  0  0  0  0  0  0  0  0  0  0  0
    5.1120   10.6170   -2.3520 H   0  0  0  0  0  0  0  0  0  0  0  0
   11.6800   13.6970    2.1500 N   0  0  0  0  0  2  0  0  0  0  0  0
   11.0060   14.3750    1.7400 H   0  0  0  0  0  0  0  0  0  0  0  0
   12.3750   12.7460    1.2760 C   0  0  2  0  0  0  0  0  0  0  0  0
   12.5890   11.8420    1.8460 H   0  0  0  0  0  0  0  0  0  0  0  0
   13.6730   13.4000    0.7880 C   0  0  0  0  0  3  0  0  0  0  0  0
   13.6690   14.3550    0.0170 O   0  0  0  0  0  0  0  0  0  0  0  0
   11.5200   12.3200    0.0890 C   0  0  0  0  0  0  0  0  0  0  0  0
   11.3570   13.1990   -0.5350 H   0  0  0  0  0  0  0  0  0  0  0  0
   12.0810   11.5750   -0.4740 H   0  0  0  0  0  0  0  0  0  0  0  0
   10.1640   11.7270    0.4160 C   0  0  0  0  0  0  0  0  0  0  0  0
   10.0310   10.3500    0.7370 C   0  0  0  0  0  0  0  0  0  0  0  0
   10.9170    9.7150    0.7680 H   0  0  0  0  0  0  0  0  0  0  0  0
    9.0060   12.5450    0.3790 C   0  0  0  0  0  0  0  0  0  0  0  0
    9.1020   13.6000    0.1210 H   0  0  0  0  0  0  0  0  0  0  0  0
    8.7740    9.8000    1.0140 C   0  0  0  0  0  0  0  0  0  0  0  0
    8.6750    8.7420    1.2580 H   0  0  0  0  0  0  0  0  0  0  0  0
    7.7410   12.0170    0.6690 C   0  0  0  0  0  0  0  0  0  0  0  0
    6.8570   12.6550    0.6610 H   0  0  0  0  0  0  0  0  0  0  0  0
    7.6340   10.6360    0.9730 C   0  0  0  0  0  0  0  0  0  0  0  0
    6.3730   10.1120    1.2340 O   0  0  0  0  0  0  0  0  0  0  0  0
    6.4530    9.1450    1.4290 H   0  0  0  0  0  0  0  0  0  0  0  0
    6.8140   13.4770   -8.2220 H   0  0  0  0  0  0  0  0  0  0  0  0
   -8.7350    4.5970   -6.3320 H   0  0  0  0  0  0  0  0  0  0  0  0
  1  2  1  0
  1  3  1  0
  3  4  1  6
  3  5  1  0
  3  7  1  0
  5  6  2  0
  7  8  1  0
  7  9  1  0
  7 10  1  0
 10 11  2  0
 10 12  1  0
 12250  1  0
 13 14  1  0
 13 15  1  0
 15 16  1  6
 15 17  1  0
 15 19  1  0
 17 18  2  0
 17 24  1  0
 19 20  1  0
 19 21  1  0
 19 22  1  0
 22 23  1  0
 24 25  1  0
 24 26  1  0
 26 27  1  1
 26 28  1  0
 26 30  1  0
 28 29  2  0
 28 35  1  0
 30 31  1  0
 30 32  1  0
 30 33  1  0
 33 34  1  0
 35 36  1  0
 35 37  1  0
 37 38  1  6
 37 39  1  0
 37 41  1  0
 39 40  2  0
 41 42  1  0
 41 43  1  0
 41 44  1  0
 44 45  2  0
 44 47  1  0
 45 46  1  0
 45 49  1  0
 47 48  1  0
 47 51  2  0
 49 50  1  0
 49 53  2  0
 51 52  1  0
 51 53  1  0
 53 54  1  0
 55 56  1  0
 55 57  1  0
 57 58  1  6
 57 59  1  0
 57 61  1  0
 59 60  2  0
 61 62  1  0
 61 63  1  0
 61 67  1  0
 63 64  1  0
 63 65  1  0
 63 66  1  0
 67 68  1  0
 67 69  1  0
 67 70  1  0
 71 72  1  0
 71 73  1  0
 73 74  1  1
 73 75  1  0
 73 77  1  0
 75 76  2  0
 77 78  1  6
 77 79  1  0
 77 82  1  0
 79 80  1  0
 79 81  1  0
 79 86  1  0
 82 83  1  0
 82 84  1  0
 82 85  1  0
 86 87  1  0
 86 88  1  0
 86 89  1  0
 90 91  1  0
 90 92  1  0
 92 93  1  6
 92 94  1  0
 92 96  1  0
 94 95  2  0
 96 97  1  0
 96 98  1  0
 96 99  1  0
 99100  1  0
 99101  2  0
100103  2  0
101102  1  0
101105  1  0
103104  1  0
103105  1  0
105251  1  0
106107  1  0
106108  1  0
108109  1  1
108110  1  0
108112  1  0
110111  2  0
112113  1  0
112114  1  0
112118  1  0
114115  1  0
114116  1  0
114117  1  0
118119  1  0
118120  1  0
118121  1  0
122123  1  0
122124  1  0
124125  1  1
124126  1  0
124128  1  0
126127  2  0
126132  1  0
128129  1  0
128130  1  0
128131  1  0
132133  1  0
132134  1  0
134135  1  1
134136  1  0
134138  1  0
136137  2  0
136143  1  0
138139  1  0
138140  1  0
138141  1  0
141142  1  0
143144  1  0
143145  1  0
145146  1  1
145147  1  0
145149  1  0
147148  2  0
149150  1  0
149151  1  0
149152  1  0
152153  1  0
152154  1  0
152158  1  0
154155  1  0
154156  1  0
154157  1  0
158159  1  0
158160  1  0
158161  1  0
162163  1  0
162164  1  0
164165  1  6
164166  1  0
164168  1  0
166167  2  0
166184  1  0
168169  1  0
168170  1  0
168171  1  0
171172  1  0
171173  1  0
171174  1  0
174175  1  0
174176  1  0
174177  1  0
177178  1  0
177179  1  0
177180  1  0
180181  1  0
180182  1  0
180183  1  0
184185  1  0
184186  1  0
186187  1  6
186188  1  0
186190  1  0
188189  2  0
190191  1  0
190192  1  0
190193  1  0
193194  2  0
193196  1  0
194195  1  0
194198  1  0
196197  1  0
196200  2  0
198199  1  0
198202  2  0
200201  1  0
200202  1  0
202203  1  0
203204  1  0
205206  1  0
205207  1  0
207208  1  6
207209  1  0
207211  1  0
209210  2  0
211212  1  0
211213  1  0
211214  1  0
214215  1  0
214216  1  0
214217  1  0
217218  1  0
217219  1  0
217220  1  0
220221  1  0
220222  1  0
222223  2  0
222226  1  0
223224  1  0
223225  1  0
226227  1  0
226228  1  0
229230  1  0
229231  1  0
231232  1  1
231233  1  0
231235  1  0
233234  2  0
235236  1  0
235237  1  0
235238  1  0
238239  2  0
238241  1  0
239240  1  0
239243  1  0
241242  1  0
241245  2  0
243244  1  0
243247  2  0
245246  1  0
245247  1  0
247248  1  0
248249  1  0
M  RAD  8   1   2   5   2  13   2  39   2  55   2  59   2  71   2  75   2
M  RAD  8  90   2  94   2 106   2 110   2 122   2 147   2 162   2 188   2
M  CHG  2 180   1 223   1
M  RAD  4 205   2 209   2 229   2 233   2
M  END
$$$$

     RDKit          3D

251245  0  0  0  0  0  0  0  0999 V2000
    8.2390   15.7430  -10.2460 N   0  0  0  0  0  2  0  0  0  0  0  0
    8.4060   14.8450   -9.7480 H   0  0  0  0  0  0  0  0  0  0  0  0
    7.1270   16.5820   -9.8330 C   0  0  2  0  0  0  0  0  0  0  0  0
    6.5240   16.7530  -10.7240 H   0  0  0  0  0  0  0  0  0  0  0  0
    7.5010   17.9630   -9.3590 C   0  0  0  0  0  3  0  0  0  0  0  0
    8.3130   18.1090   -8.4540 O   0  0  0  0  0  0  0  0  0  0  0  0
    6.3630   15.8620   -8.7680 C   0  0  0  0  0  0  0  0  0  0  0  0
    7.0440   15.5910   -7.9610 H   0  0  0  0  0  0  0  0  0  0  0  0
    5.5850   16.5200   -8.3800 H   0  0  0  0  0  0  0  0  0  0  0  0
    5.7360   14.6350   -9.3040 C   0  0  0  0  0  0  0  0  0  0  0  0
    4.8520   14.7920  -10.1880 O   0  0  0  0  0  0  0  0  0  0  0  0
    6.1520   13.5130   -8.8840 O   0  0  0  0  0  0  0  0  0  0  0  0
    1.6580   16.8130  -11.9920 N   0  0  0  0  0  2  0  0  0  0  0  0
    2.3630   16.6600  -11.2430 H   0  0  0  0  0  0  0  0  0  0  0  0
    0.5750   15.8710  -12.1280 C   0  0  2  0  0  0  0  0  0  0  0  0
    0.1290   15.9910  -13.1150 H   0  0  0  0  0  0  0  0  0  0  0  0
   -0.5220   16.1130  -11.1130 C   0  0  0  0  0  0  0  0  0  0  0  0
   -0.2990   16.7340  -10.0760 O   0  0  0  0  0  0  0  0  0  0  0  0
    1.1300   14.4960  -11.9520 C   0  0  0  0  0  0  0  0  0  0  0  0
    0.3140   13.7740  -11.9180 H   0  0  0  0  0  0  0  0  0  0  0  0
    1.6970   14.4460  -11.0220 H   0  0  0  0  0  0  0  0  0  0  0  0
    1.9940   14.1960  -13.0610 O   0  0  0  0  0  0  0  0  0  0  0  0
    2.3660   13.2850  -12.9510 H   0  0  0  0  0  0  0  0  0  0  0  0
   -1.7070   15.5990  -11.3820 N   0  0  0  0  0  0  0  0  0  0  0  0
   -1.8300   15.0390  -12.2500 H   0  0  0  0  0  0  0  0  0  0  0  0
   -2.8500   15.7940  -10.4960 C   0  0  2  0  0  0  0  0  0  0  0  0
   -2.4940   15.6940   -9.4710 H   0  0  0  0  0  0  0  0  0  0  0  0
   -3.9360   14.7420  -10.7100 C   0  0  0  0  0  0  0  0  0  0  0  0
   -4.1170   14.2150  -11.8220 O   0  0  0  0  0  0  0  0  0  0  0  0
   -3.4310   17.1680  -10.7260 C   0  0  0  0  0  0  0  0  0  0  0  0
   -3.6970   17.2780  -11.7770 H   0  0  0  0  0  0  0  0  0  0  0  0
   -2.6920   17.9230  -10.4590 H   0  0  0  0  0  0  0  0  0  0  0  0
   -4.5930   17.3400   -9.9250 O   0  0  0  0  0  0  0  0  0  0  0  0
   -4.9690   18.2430  -10.0800 H   0  0  0  0  0  0  0  0  0  0  0  0
   -4.6520   14.4140   -9.6350 N   0  0  0  0  0  0  0  0  0  0  0  0
   -4.3590   14.7920   -8.7110 H   0  0  0  0  0  0  0  0  0  0  0  0
   -5.8320   13.5460   -9.6910 C   0  0  2  0  0  0  0  0  0  0  0  0
   -5.6450   12.7780  -10.4420 H   0  0  0  0  0  0  0  0  0  0  0  0
   -7.0770   14.3290  -10.1220 C   0  0  0  0  0  3  0  0  0  0  0  0
   -8.0250   13.7390  -10.5890 O   0  0  0  0  0  0  0  0  0  0  0  0
   -6.0610   12.8570   -8.3570 C   0  0  0  0  0  0  0  0  0  0  0  0
   -5.9730   13.6020   -7.5670 H   0  0  0  0  0  0  0  0  0  0  0  0
   -7.0700   12.4440   -8.3540 H   0  0  0  0  0  0  0  0  0  0  0  0
   -5.0730   11.7210   -8.0610 C   0  0  0  0  0  0  0  0  0  0  0  0
   -4.0720   11.8810   -7.1020 C   0  0  0  0  0  0  0  0  0  0  0  0
   -3.9860   12.8270   -6.5670 H   0  0  0  0  0  0  0  0  0  0  0  0
   -5.1740   10.4980   -8.7080 C   0  0  0  0  0  0  0  0  0  0  0  0
   -5.9560   10.3530   -9.4530 H   0  0  0  0  0  0  0  0  0  0  0  0
   -3.1820   10.8480   -6.8190 C   0  0  0  0  0  0  0  0  0  0  0  0
   -2.4060   10.9870   -6.0660 H   0  0  0  0  0  0  0  0  0  0  0  0
   -4.2920    9.4420   -8.4250 C   0  0  0  0  0  0  0  0  0  0  0  0
   -4.4060    8.4830   -8.9310 H   0  0  0  0  0  0  0  0  0  0  0  0
   -3.2860    9.6220   -7.5080 C   0  0  0  0  0  0  0  0  0  0  0  0
   -2.5720    8.8220   -7.3140 H   0  0  0  0  0  0  0  0  0  0  0  0
   -3.3140    5.0230  -13.0570 N   0  0  0  0  0  2  0  0  0  0  0  0
   -4.1400    5.6150  -12.8370 H   0  0  0  0  0  0  0  0  0  0  0  0
   -2.5170    4.4610  -11.9940 C   0  0  2  0  0  0  0  0  0  0  0  0
   -1.7250    3.8470  -12.4230 H   0  0  0  0  0  0  0  0  0  0  0  0
   -3.4380    3.6400  -11.1070 C   0  0  0  0  0  3  0  0  0  0  0  0
   -4.4710    4.1900  -10.6370 O   0  0  0  0  0  0  0  0  0  0  0  0
   -1.8540    5.5840  -11.1350 C   0  0  0  0  0  0  0  0  0  0  0  0
   -2.6490    6.2450  -10.7900 H   0  0  0  0  0  0  0  0  0  0  0  0
   -1.1450    4.9970   -9.9330 C   0  0  0  0  0  0  0  0  0  0  0  0
   -1.8650    4.4610   -9.3150 H   0  0  0  0  0  0  0  0  0  0  0  0
   -0.3700    4.3090  -10.2700 H   0  0  0  0  0  0  0  0  0  0  0  0
   -0.6920    5.8000   -9.3520 H   0  0  0  0  0  0  0  0  0  0  0  0
   -0.8790    6.3820  -11.9530 C   0  0  0  0  0  0  0  0  0  0  0  0
   -0.0980    5.7220  -12.3300 H   0  0  0  0  0  0  0  0  0  0  0  0
   -1.4020    6.8440  -12.7900 H   0  0  0  0  0  0  0  0  0  0  0  0
   -0.4320    7.1570  -11.3300 H   0  0  0  0  0  0  0  0  0  0  0  0
   -4.5210    2.0210   -7.7850 N   0  0  0  0  0  2  0  0  0  0  0  0
   -5.4600    2.1270   -8.2190 H   0  0  0  0  0  0  0  0  0  0  0  0
   -4.3760    2.2860   -6.3400 C   0  0  2  0  0  0  0  0  0  0  0  0
   -3.3700    1.9630   -6.0710 H   0  0  0  0  0  0  0  0  0  0  0  0
   -5.3740    1.4700   -5.5200 C   0  0  0  0  0  3  0  0  0  0  0  0
   -6.6090    1.7400   -5.5300 O   0  0  0  0  0  0  0  0  0  0  0  0
   -4.4620    3.8040   -5.9870 C   0  0  2  0  0  0  0  0  0  0  0  0
   -5.4400    4.1780   -6.2900 H   0  0  0  0  0  0  0  0  0  0  0  0
   -3.3750    4.5860   -6.7450 C   0  0  0  0  0  0  0  0  0  0  0  0
   -2.4260    4.4330   -6.2310 H   0  0  0  0  0  0  0  0  0  0  0  0
   -3.3090    4.1820   -7.7550 H   0  0  0  0  0  0  0  0  0  0  0  0
   -4.3050    4.0130   -4.4580 C   0  0  0  0  0  0  0  0  0  0  0  0
   -5.1000    3.4810   -3.9360 H   0  0  0  0  0  0  0  0  0  0  0  0
   -3.3370    3.6280   -4.1370 H   0  0  0  0  0  0  0  0  0  0  0  0
   -4.3670    5.0770   -4.2300 H   0  0  0  0  0  0  0  0  0  0  0  0
   -3.6210    6.0930   -6.8510 C   0  0  0  0  0  0  0  0  0  0  0  0
   -4.5590    6.2710   -7.3760 H   0  0  0  0  0  0  0  0  0  0  0  0
   -3.6760    6.5220   -5.8510 H   0  0  0  0  0  0  0  0  0  0  0  0
   -2.8020    6.5560   -7.4010 H   0  0  0  0  0  0  0  0  0  0  0  0
   -7.1030    4.9550  -11.2140 N   0  0  0  0  0  2  0  0  0  0  0  0
   -6.1220    4.6450  -11.0650 H   0  0  0  0  0  0  0  0  0  0  0  0
   -7.3690    6.3930  -11.2260 C   0  0  2  0  0  0  0  0  0  0  0  0
   -8.4260    6.5500  -11.4390 H   0  0  0  0  0  0  0  0  0  0  0  0
   -6.5510    7.1110  -12.3230 C   0  0  0  0  0  3  0  0  0  0  0  0
   -5.3670    6.8340  -12.4820 O   0  0  0  0  0  0  0  0  0  0  0  0
   -6.9990    6.9690   -9.8590 C   0  0  0  0  0  0  0  0  0  0  0  0
   -5.9460    6.7590   -9.6690 H   0  0  0  0  0  0  0  0  0  0  0  0
   -7.1550    8.0480   -9.8840 H   0  0  0  0  0  0  0  0  0  0  0  0
   -7.8100    6.3970   -8.7320 C   0  0  0  0  0  0  0  0  0  0  0  0
   -9.1120    6.7880   -8.4820 N   0  0  0  0  0  0  0  0  0  0  0  0
   -7.5200    5.4300   -7.8250 C   0  0  0  0  0  0  0  0  0  0  0  0
   -6.5730    4.9000   -7.7210 H   0  0  0  0  0  0  0  0  0  0  0  0
   -9.5840    6.0790   -7.4730 C   0  0  0  0  0  0  0  0  0  0  0  0
  -10.5840    6.1660   -7.0470 H   0  0  0  0  0  0  0  0  0  0  0  0
   -8.6430    5.2470   -7.0660 N   0  0  0  0  0  0  0  0  0  0  0  0
   -4.3430    9.9870  -13.8600 N   0  0  0  0  0  2  0  0  0  0  0  0
   -3.9430    9.2670  -14.4950 H   0  0  0  0  0  0  0  0  0  0  0  0
   -3.4660   11.0950  -13.4060 C   0  0  2  0  0  0  0  0  0  0  0  0
   -3.9980   11.6020  -12.6010 H   0  0  0  0  0  0  0  0  0  0  0  0
   -3.1980   12.0700  -14.5610 C   0  0  0  0  0  3  0  0  0  0  0  0
   -2.6940   11.6660  -15.6100 O   0  0  0  0  0  0  0  0  0  0  0  0
   -2.1230   10.5980  -12.8370 C   0  0  0  0  0  0  0  0  0  0  0  0
   -1.6160   10.0380  -13.6230 H   0  0  0  0  0  0  0  0  0  0  0  0
   -1.2160   11.7770  -12.4230 C   0  0  0  0  0  0  0  0  0  0  0  0
   -1.0140   12.4010  -13.2930 H   0  0  0  0  0  0  0  0  0  0  0  0
   -1.7190   12.3690  -11.6580 H   0  0  0  0  0  0  0  0  0  0  0  0
   -0.2780   11.3900  -12.0260 H   0  0  0  0  0  0  0  0  0  0  0  0
   -2.3600    9.6900  -11.6480 C   0  0  0  0  0  0  0  0  0  0  0  0
   -2.8940   10.2400  -10.8730 H   0  0  0  0  0  0  0  0  0  0  0  0
   -2.9540    8.8310  -11.9610 H   0  0  0  0  0  0  0  0  0  0  0  0
   -1.4020    9.3470  -11.2570 H   0  0  0  0  0  0  0  0  0  0  0  0
   10.6540   11.3050   -5.5760 N   0  0  0  0  0  2  0  0  0  0  0  0
   10.3920   12.2850   -5.8030 H   0  0  0  0  0  0  0  0  0  0  0  0
   10.0940   10.6720   -4.3490 C   0  0  2  0  0  0  0  0  0  0  0  0
   10.8680    9.9920   -3.9930 H   0  0  0  0  0  0  0  0  0  0  0  0
    8.8430    9.8410   -4.6350 C   0  0  0  0  0  0  0  0  0  0  0  0
    8.3760    9.1070   -3.7350 O   0  0  0  0  0  0  0  0  0  0  0  0
    9.8210   11.6790   -3.2540 C   0  0  0  0  0  0  0  0  0  0  0  0
   10.7510   12.1790   -2.9810 H   0  0  0  0  0  0  0  0  0  0  0  0
    9.1020   12.4160   -3.6110 H   0  0  0  0  0  0  0  0  0  0  0  0
    9.4140   11.1650   -2.3830 H   0  0  0  0  0  0  0  0  0  0  0  0
    8.3280    9.9240   -5.8760 N   0  0  0  0  0  0  0  0  0  0  0  0
    8.8050   10.5390   -6.5650 H   0  0  0  0  0  0  0  0  0  0  0  0
    7.1420    9.2010   -6.3060 C   0  0  2  0  0  0  0  0  0  0  0  0
    6.4000    9.3360   -5.5190 H   0  0  0  0  0  0  0  0  0  0  0  0
    7.4250    7.7530   -6.4980 C   0  0  0  0  0  0  0  0  0  0  0  0
    8.5700    7.2700   -6.4620 O   0  0  0  0  0  0  0  0  0  0  0  0
    6.6180    9.7450   -7.6390 C   0  0  0  0  0  0  0  0  0  0  0  0
    5.6190    9.3460   -7.8150 H   0  0  0  0  0  0  0  0  0  0  0  0
    7.2840    9.4210   -8.4390 H   0  0  0  0  0  0  0  0  0  0  0  0
    6.5530   11.1910   -7.6390 O   0  0  0  0  0  0  0  0  0  0  0  0
    6.2110   11.5050   -8.5140 H   0  0  0  0  0  0  0  0  0  0  0  0
    6.3550    7.0580   -6.8100 N   0  0  0  0  0  0  0  0  0  0  0  0
    5.4610    7.5640   -6.9720 H   0  0  0  0  0  0  0  0  0  0  0  0
    6.3700    5.6400   -6.9350 C   0  0  2  0  0  0  0  0  0  0  0  0
    7.1620    5.1570   -6.3640 H   0  0  0  0  0  0  0  0  0  0  0  0
    6.5790    5.3360   -8.4090 C   0  0  0  0  0  3  0  0  0  0  0  0
    6.0940    6.0730   -9.2600 O   0  0  0  0  0  0  0  0  0  0  0  0
    5.0220    5.1190   -6.4090 C   0  0  0  0  0  0  0  0  0  0  0  0
    4.2350    5.7010   -6.8870 H   0  0  0  0  0  0  0  0  0  0  0  0
    4.9330    4.0750   -6.7090 H   0  0  0  0  0  0  0  0  0  0  0  0
    4.7900    5.1880   -4.8740 C   0  0  0  0  0  0  0  0  0  0  0  0
    5.0100    6.2120   -4.5710 H   0  0  0  0  0  0  0  0  0  0  0  0
    3.3110    4.7880   -4.5700 C   0  0  0  0  0  0  0  0  0  0  0  0
    2.6380    5.4790   -5.0770 H   0  0  0  0  0  0  0  0  0  0  0  0
    3.1300    3.7740   -4.9260 H   0  0  0  0  0  0  0  0  0  0  0  0
    3.1370    4.8330   -3.4950 H   0  0  0  0  0  0  0  0  0  0  0  0
    5.7270    4.2640   -4.0560 C   0  0  0  0  0  0  0  0  0  0  0  0
    5.5710    3.2290   -4.3610 H   0  0  0  0  0  0  0  0  0  0  0  0
    6.7640    4.5460   -4.2400 H   0  0  0  0  0  0  0  0  0  0  0  0
    5.5030    4.3690   -2.9940 H   0  0  0  0  0  0  0  0  0  0  0  0
    5.3050    3.2970  -10.3550 N   0  0  0  0  0  2  0  0  0  0  0  0
    5.3190    3.2100   -9.3190 H   0  0  0  0  0  0  0  0  0  0  0  0
    4.1120    2.9140  -11.0930 C   0  0  2  0  0  0  0  0  0  0  0  0
    4.3770    2.2010  -11.8730 H   0  0  0  0  0  0  0  0  0  0  0  0
    3.5250    4.1710  -11.7290 C   0  0  0  0  0  0  0  0  0  0  0  0
    2.8290    4.0740  -12.7370 O   0  0  0  0  0  0  0  0  0  0  0  0
    3.0890    2.1810  -10.2000 C   0  0  0  0  0  0  0  0  0  0  0  0
    2.2390    1.8870  -10.8160 H   0  0  0  0  0  0  0  0  0  0  0  0
    3.5630    1.2900   -9.7890 H   0  0  0  0  0  0  0  0  0  0  0  0
    2.5850    3.0260   -9.0590 C   0  0  0  0  0  0  0  0  0  0  0  0
    3.2850    2.9380   -8.2280 H   0  0  0  0  0  0  0  0  0  0  0  0
    2.5440    4.0640   -9.3890 H   0  0  0  0  0  0  0  0  0  0  0  0
    1.2080    2.6210   -8.5730 C   0  0  0  0  0  0  0  0  0  0  0  0
    0.7530    3.4710   -8.0650 H   0  0  0  0  0  0  0  0  0  0  0  0
    0.6000    2.3470   -9.4350 H   0  0  0  0  0  0  0  0  0  0  0  0
    1.2480    1.4500   -7.6160 C   0  0  0  0  0  0  0  0  0  0  0  0
    2.1300    1.5540   -6.9850 H   0  0  0  0  0  0  0  0  0  0  0  0
    1.3270    0.5330   -8.2000 H   0  0  0  0  0  0  0  0  0  0  0  0
    0.0220    1.3380   -6.7120 N   0  0  0  0  0  4  0  0  0  0  0  0
   -0.0630    2.2000   -6.1370 H   0  0  0  0  0  0  0  0  0  0  0  0
   -0.8300    1.2250   -7.2980 H   0  0  0  0  0  0  0  0  0  0  0  0
    0.1270    0.5130   -6.0880 H   0  0  0  0  0  0  0  0  0  0  0  0
    3.8150    5.3320  -11.1570 N   0  0  0  0  0  0  0  0  0  0  0  0
    4.3440    5.3460  -10.2620 H   0  0  0  0  0  0  0  0  0  0  0  0
    3.4060    6.5700  -11.7600 C   0  0  2  0  0  0  0  0  0  0  0  0
    2.6010    6.3500  -12.4610 H   0  0  0  0  0  0  0  0  0  0  0  0
    4.5830    7.2000  -12.5340 C   0  0  0  0  0  3  0  0  0  0  0  0
    4.3900    7.6850  -13.6440 O   0  0  0  0  0  0  0  0  0  0  0  0
    2.8330    7.5740  -10.6990 C   0  0  0  0  0  0  0  0  0  0  0  0
    1.7520    7.4410  -10.6510 H   0  0  0  0  0  0  0  0  0  0  0  0
    3.2710    7.3350   -9.7300 H   0  0  0  0  0  0  0  0  0  0  0  0
    3.1220    9.0400  -11.0060 C   0  0  0  0  0  0  0  0  0  0  0  0
    2.4190    9.6990  -11.9770 C   0  0  0  0  0  0  0  0  0  0  0  0
    1.6340    9.1740  -12.5200 H   0  0  0  0  0  0  0  0  0  0  0  0
    4.1580    9.7400  -10.3510 C   0  0  0  0  0  0  0  0  0  0  0  0
    4.7460    9.2230   -9.5930 H   0  0  0  0  0  0  0  0  0  0  0  0
    2.7000   11.0760  -12.2930 C   0  0  0  0  0  0  0  0  0  0  0  0
    2.1060   11.5870  -13.0510 H   0  0  0  0  0  0  0  0  0  0  0  0
    4.4620   11.1120  -10.6520 C   0  0  0  0  0  0  0  0  0  0  0  0
    5.2550   11.6380  -10.1200 H   0  0  0  0  0  0  0  0  0  0  0  0
    3.7150   11.7570  -11.6450 C   0  0  0  0  0  0  0  0  0  0  0  0
    3.9630   13.0750  -12.0290 O   0  0  0  0  0  0  0  0  0  0  0  0
    3.3260   13.3360  -12.7410 H   0  0  0  0  0  0  0  0  0  0  0  0
   10.9780    6.3050   -4.9480 N   0  0  0  0  0  2  0  0  0  0  0  0
   10.1880    5.9880   -5.5450 H   0  0  0  0  0  0  0  0  0  0  0  0
   10.7200    6.5580   -3.5270 C   0  0  2  0  0  0  0  0  0  0  0  0
   10.9690    7.6020   -3.3390 H   0  0  0  0  0  0  0  0  0  0  0  0
   11.6250    5.7190   -2.6400 C   0  0  0  0  0  3  0  0  0  0  0  0
   12.2670    6.2920   -1.7970 O   0  0  0  0  0  0  0  0  0  0  0  0
    9.2040    6.4100   -3.1540 C   0  0  0  0  0  0  0  0  0  0  0  0
    8.6640    7.2090   -3.6620 H   0  0  0  0  0  0  0  0  0  0  0  0
    8.8680    5.4460   -3.5360 H   0  0  0  0  0  0  0  0  0  0  0  0
    8.8060    6.4750   -1.6050 C   0  0  0  0  0  0  0  0  0  0  0  0
    9.0730    5.5270   -1.1380 H   0  0  0  0  0  0  0  0  0  0  0  0
    9.3690    7.2810   -1.1350 H   0  0  0  0  0  0  0  0  0  0  0  0
    7.2710    6.7340   -1.3710 C   0  0  0  0  0  0  0  0  0  0  0  0
    6.9860    6.4380   -0.3620 H   0  0  0  0  0  0  0  0  0  0  0  0
    6.6770    6.1740   -2.0940 H   0  0  0  0  0  0  0  0  0  0  0  0
    7.0740    8.1750   -1.5550 N   0  0  0  0  0  0  0  0  0  0  0  0
    7.9010    8.7810   -1.3810 H   0  0  0  0  0  0  0  0  0  0  0  0
    5.9530    8.7950   -1.9200 C   0  0  0  0  0  0  0  0  0  0  0  0
    4.8300    8.1290   -2.1550 N   0  0  0  0  0  4  0  0  0  0  0  0
    4.8090    7.0940   -2.0560 H   0  0  0  0  0  0  0  0  0  0  0  0
    3.9710    8.6420   -2.4390 H   0  0  0  0  0  0  0  0  0  0  0  0
    5.9750   10.1110   -2.0680 N   0  0  0  0  0  0  0  0  0  0  0  0
    6.8550   10.6390   -1.9000 H   0  0  0  0  0  0  0  0  0  0  0  0
    5.1120   10.6170   -2.3520 H   0  0  0  0  0  0  0  0  0  0  0  0
   11.6800   13.6970    2.1500 N   0  0  0  0  0  2  0  0  0  0  0  0
   11.0060   14.3750    1.7400 H   0  0  0  0  0  0  0  0  0  0  0  0
   12.3750   12.7460    1.2760 C   0  0  2  0  0  0  0  0  0  0  0  0
   12.5890   11.8420    1.8460 H   0  0  0  0  0  0  0  0  0  0  0  0
   13.6730   13.4000    0.7880 C   0  0  0  0  0  3  0  0  0  0  0  0
   13.6690   14.3550    0.0170 O   0  0  0  0  0  0  0  0  0  0  0  0
   11.5200   12.3200    0.0890 C   0  0  0  0  0  0  0  0  0  0  0  0
   11.3570   13.1990   -0.5350 H   0  0  0  0  0  0  0  0  0  0  0  0
   12.0810   11.5750   -0.4740 H   0  0  0  0  0  0  0  0  0  0  0  0
   10.1640   11.7270    0.4160 C   0  0  0  0  0  0  0  0  0  0  0  0
   10.0310   10.3500    0.7370 C   0  0  0  0  0  0  0  0  0  0  0  0
   10.9170    9.7150    0.7680 H   0  0  0  0  0  0  0  0  0  0  0  0
    9.0060   12.5450    0.3790 C   0  0  0  0  0  0  0  0  0  0  0  0
    9.1020   13.6000    0.1210 H   0  0  0  0  0  0  0  0  0  0  0  0
    8.7740    9.8000    1.0140 C   0  0  0  0  0  0  0  0  0  0  0  0
    8.6750    8.7420    1.2580 H   0  0  0  0  0  0  0  0  0  0  0  0
    7.7410   12.0170    0.6690 C   0  0  0  0  0  0  0  0  0  0  0  0
    6.8570   12.6550    0.6610 H   0  0  0  0  0  0  0  0  0  0  0  0
    7.6340   10.6360    0.9730 C   0  0  0  0  0  0  0  0  0  0  0  0
    6.3730   10.1120    1.2340 O   0  0  0  0  0  0  0  0  0  0  0  0
    6.4530    9.1450    1.4290 H   0  0  0  0  0  0  0  0  0  0  0  0
    6.8140   13.4770   -8.2220 H   0  0  0  0  0  0  0  0  0  0  0  0
   -8.7350    4.5970   -6.3320 H   0  0  0  0  0  0  0  0  0  0  0  0
  1  2  1  0
  1  3  1  0
  3  4  1  6
  3  5  1  0
  3  7  1  0
  5  6  2  0
  7  8  1  0
  7  9  1  0
  7 10  1  0
 10 11  2  0
 10 12  1  0
 12250  1  0
 13 14  1  0
 13 15  1  0
 15 16  1  6
 15 17  1  0
 15 19  1  0
 17 18  2  0
 17 24  1  0
 19 20  1  0
 19 21  1  0
 19 22  1  0
 22 23  1  0
 24 25  1  0
 24 26  1  0
 26 27  1  1
 26 28  1  0
 26 30  1  0
 28 29  2  0
 28 35  1  0
 30 31  1  0
 30 32  1  0
 30 33  1  0
 33 34  1  0
 35 36  1  0
 35 37  1  0
 37 38  1  6
 37 39  1  0
 37 41  1  0
 39 40  2  0
 41 42  1  0
 41 43  1  0
 41 44  1  0
 44 45  2  0
 44 47  1  0
 45 46  1  0
 45 49  1  0
 47 48  1  0
 47 51  2  0
 49 50  1  0
 49 53  2  0
 51 52  1  0
 51 53  1  0
 53 54  1  0
 55 56  1  0
 55 57  1  0
 57 58  1  6
 57 59  1  0
 57 61  1  0
 59 60  2  0
 61 62  1  0
 61 63  1  0
 61 67  1  0
 63 64  1  0
 63 65  1  0
 63 66  1  0
 67 68  1  0
 67 69  1  0
 67 70  1  0
 71 72  1  0
 71 73  1  0
 73 74  1  1
 73 75  1  0
 73 77  1  0
 75 76  2  0
 77 78  1  6
 77 79  1  0
 77 82  1  0
 79 80  1  0
 79 81  1  0
 79 86  1  0
 82 83  1  0
 82 84  1  0
 82 85  1  0
 86 87  1  0
 86 88  1  0
 86 89  1  0
 90 91  1  0
 90 92  1  0
 92 93  1  6
 92 94  1  0
 92 96  1  0
 94 95  2  0
 96 97  1  0
 96 98  1  0
 96 99  1  0
 99100  1  0
 99101  2  0
100103  2  0
101102  1  0
101105  1  0
103104  1  0
103105  1  0
105251  1  0
106107  1  0
106108  1  0
108109  1  1
108110  1  0
108112  1  0
110111  2  0
112113  1  0
112114  1  0
112118  1  0
114115  1  0
114116  1  0
114117  1  0
118119  1  0
118120  1  0
118121  1  0
122123  1  0
122124  1  0
124125  1  1
124126  1  0
124128  1  0
126127  2  0
126132  1  0
128129  1  0
128130  1  0
128131  1  0
132133  1  0
132134  1  0
134135  1  1
134136  1  0
134138  1  0
136137  2  0
136143  1  0
138139  1  0
138140  1  0
138141  1  0
141142  1  0
143144  1  0
143145  1  0
145146  1  1
145147  1  0
145149  1  0
147148  2  0
149150  1  0
149151  1  0
149152  1  0
152153  1  0
152154  1  0
152158  1  0
154155  1  0
154156  1  0
154157  1  0
158159  1  0
158160  1  0
158161  1  0
162163  1  0
162164  1  0
164165  1  6
164166  1  0
164168  1  0
166167  2  0
166184  1  0
168169  1  0
168170  1  0
168171  1  0
171172  1  0
171173  1  0
171174  1  0
174175  1  0
174176  1  0
174177  1  0
177178  1  0
177179  1  0
177180  1  0
180181  1  0
180182  1  0
180183  1  0
184185  1  0
184186  1  0
186187  1  6
186188  1  0
186190  1  0
188189  2  0
190191  1  0
190192  1  0
190193  1  0
193194  2  0
193196  1  0
194195  1  0
194198  1  0
196197  1  0
196200  2  0
198199  1  0
198202  2  0
200201  1  0
200202  1  0
202203  1  0
203204  1  0
205206  1  0
205207  1  0
207208  1  6
207209  1  0
207211  1  0
209210  2  0
211212  1  0
211213  1  0
211214  1  0
214215  1  0
214216  1  0
214217  1  0
217218  1  0
217219  1  0
217220  1  0
220221  1  0
220222  1  0
222223  2  0
222226  1  0
223224  1  0
223225  1  0
226227  1  0
226228  1  0
229230  1  0
229231  1  0
231232  1  1
231233  1  0
231235  1  0
233234  2  0
235236  1  0
235237  1  0
235238  1  0
238239  2  0
238241  1  0
239240  1  0
239243  1  0
241242  1  0
241245  2  0
243244  1  0
243247  2  0
245246  1  0
245247  1  0
247248  1  0
248249  1  0
M  RAD  8   1   2   5   2  13   2  39   2  55   2  59   2  71   2  75   2
M  RAD  8  90   2  94   2 106   2 110   2 122   2 147   2 162   2 188   2
M  CHG  2 180   1 223   1
M  RAD  4 205   2 209   2 229   2 233   2
M  END
$$$$

     RDKit          3D

251245  0  0  0  0  0  0  0  0999 V2000
    8.2390   15.7430  -10.2460 N   0  0  0  0  0  2  0  0  0  0  0  0
    8.4060   14.8450   -9.7480 H   0  0  0  0  0  0  0  0  0  0  0  0
    7.1270   16.5820   -9.8330 C   0  0  2  0  0  0  0  0  0  0  0  0
    6.5240   16.7530  -10.7240 H   0  0  0  0  0  0  0  0  0  0  0  0
    7.5010   17.9630   -9.3590 C   0  0  0  0  0  3  0  0  0  0  0  0
    8.3130   18.1090   -8.4540 O   0  0  0  0  0  0  0  0  0  0  0  0
    6.3630   15.8620   -8.7680 C   0  0  0  0  0  0  0  0  0  0  0  0
    7.0440   15.5910   -7.9610 H   0  0  0  0  0  0  0  0  0  0  0  0
    5.5850   16.5200   -8.3800 H   0  0  0  0  0  0  0  0  0  0  0  0
    5.7360   14.6350   -9.3040 C   0  0  0  0  0  0  0  0  0  0  0  0
    4.8520   14.7920  -10.1880 O   0  0  0  0  0  0  0  0  0  0  0  0
    6.1520   13.5130   -8.8840 O   0  0  0  0  0  0  0  0  0  0  0  0
    1.6580   16.8130  -11.9920 N   0  0  0  0  0  2  0  0  0  0  0  0
    2.3630   16.6600  -11.2430 H   0  0  0  0  0  0  0  0  0  0  0  0
    0.5750   15.8710  -12.1280 C   0  0  2  0  0  0  0  0  0  0  0  0
    0.1290   15.9910  -13.1150 H   0  0  0  0  0  0  0  0  0  0  0  0
   -0.5220   16.1130  -11.1130 C   0  0  0  0  0  0  0  0  0  0  0  0
   -0.2990   16.7340  -10.0760 O   0  0  0  0  0  0  0  0  0  0  0  0
    1.1300   14.4960  -11.9520 C   0  0  0  0  0  0  0  0  0  0  0  0
    0.3140   13.7740  -11.9180 H   0  0  0  0  0  0  0  0  0  0  0  0
    1.6970   14.4460  -11.0220 H   0  0  0  0  0  0  0  0  0  0  0  0
    1.9940   14.1960  -13.0610 O   0  0  0  0  0  0  0  0  0  0  0  0
    2.3660   13.2850  -12.9510 H   0  0  0  0  0  0  0  0  0  0  0  0
   -1.7070   15.5990  -11.3820 N   0  0  0  0  0  0  0  0  0  0  0  0
   -1.8300   15.0390  -12.2500 H   0  0  0  0  0  0  0  0  0  0  0  0
   -2.8500   15.7940  -10.4960 C   0  0  2  0  0  0  0  0  0  0  0  0
   -2.4940   15.6940   -9.4710 H   0  0  0  0  0  0  0  0  0  0  0  0
   -3.9360   14.7420  -10.7100 C   0  0  0  0  0  0  0  0  0  0  0  0
   -4.1170   14.2150  -11.8220 O   0  0  0  0  0  0  0  0  0  0  0  0
   -3.4310   17.1680  -10.7260 C   0  0  0  0  0  0  0  0  0  0  0  0
   -3.6970   17.2780  -11.7770 H   0  0  0  0  0  0  0  0  0  0  0  0
   -2.6920   17.9230  -10.4590 H   0  0  0  0  0  0  0  0  0  0  0  0
   -4.5930   17.3400   -9.9250 O   0  0  0  0  0  0  0  0  0  0  0  0
   -4.9690   18.2430  -10.0800 H   0  0  0  0  0  0  0  0  0  0  0  0
   -4.6520   14.4140   -9.6350 N   0  0  0  0  0  0  0  0  0  0  0  0
   -4.3590   14.7920   -8.7110 H   0  0  0  0  0  0  0  0  0  0  0  0
   -5.8320   13.5460   -9.6910 C   0  0  2  0  0  0  0  0  0  0  0  0
   -5.6450   12.7780  -10.4420 H   0  0  0  0  0  0  0  0  0  0  0  0
   -7.0770   14.3290  -10.1220 C   0  0  0  0  0  3  0  0  0  0  0  0
   -8.0250   13.7390  -10.5890 O   0  0  0  0  0  0  0  0  0  0  0  0
   -6.0610   12.8570   -8.3570 C   0  0  0  0  0  0  0  0  0  0  0  0
   -5.9730   13.6020   -7.5670 H   0  0  0  0  0  0  0  0  0  0  0  0
   -7.0700   12.4440   -8.3540 H   0  0  0  0  0  0  0  0  0  0  0  0
   -5.0730   11.7210   -8.0610 C   0  0  0  0  0  0  0  0  0  0  0  0
   -4.0720   11.8810   -7.1020 C   0  0  0  0  0  0  0  0  0  0  0  0
   -3.9860   12.8270   -6.5670 H   0  0  0  0  0  0  0  0  0  0  0  0
   -5.1740   10.4980   -8.7080 C   0  0  0  0  0  0  0  0  0  0  0  0
   -5.9560   10.3530   -9.4530 H   0  0  0  0  0  0  0  0  0  0  0  0
   -3.1820   10.8480   -6.8190 C   0  0  0  0  0  0  0  0  0  0  0  0
   -2.4060   10.9870   -6.0660 H   0  0  0  0  0  0  0  0  0  0  0  0
   -4.2920    9.4420   -8.4250 C   0  0  0  0  0  0  0  0  0  0  0  0
   -4.4060    8.4830   -8.9310 H   0  0  0  0  0  0  0  0  0  0  0  0
   -3.2860    9.6220   -7.5080 C   0  0  0  0  0  0  0  0  0  0  0  0
   -2.5720    8.8220   -7.3140 H   0  0  0  0  0  0  0  0  0  0  0  0
   -3.3140    5.0230  -13.0570 N   0  0  0  0  0  2  0  0  0  0  0  0
   -4.1400    5.6150  -12.8370 H   0  0  0  0  0  0  0  0  0  0  0  0
   -2.5170    4.4610  -11.9940 C   0  0  2  0  0  0  0  0  0  0  0  0
   -1.7250    3.8470  -12.4230 H   0  0  0  0  0  0  0  0  0  0  0  0
   -3.4380    3.6400  -11.1070 C   0  0  0  0  0  3  0  0  0  0  0  0
   -4.4710    4.1900  -10.6370 O   0  0  0  0  0  0  0  0  0  0  0  0
   -1.8540    5.5840  -11.1350 C   0  0  0  0  0  0  0  0  0  0  0  0
   -2.6490    6.2450  -10.7900 H   0  0  0  0  0  0  0  0  0  0  0  0
   -1.1450    4.9970   -9.9330 C   0  0  0  0  0  0  0  0  0  0  0  0
   -1.8650    4.4610   -9.3150 H   0  0  0  0  0  0  0  0  0  0  0  0
   -0.3700    4.3090  -10.2700 H   0  0  0  0  0  0  0  0  0  0  0  0
   -0.6920    5.8000   -9.3520 H   0  0  0  0  0  0  0  0  0  0  0  0
   -0.8790    6.3820  -11.9530 C   0  0  0  0  0  0  0  0  0  0  0  0
   -0.0980    5.7220  -12.3300 H   0  0  0  0  0  0  0  0  0  0  0  0
   -1.4020    6.8440  -12.7900 H   0  0  0  0  0  0  0  0  0  0  0  0
   -0.4320    7.1570  -11.3300 H   0  0  0  0  0  0  0  0  0  0  0  0
   -4.5210    2.0210   -7.7850 N   0  0  0  0  0  2  0  0  0  0  0  0
   -5.4600    2.1270   -8.2190 H   0  0  0  0  0  0  0  0  0  0  0  0
   -4.3760    2.2860   -6.3400 C   0  0  2  0  0  0  0  0  0  0  0  0
   -3.3700    1.9630   -6.0710 H   0  0  0  0  0  0  0  0  0  0  0  0
   -5.3740    1.4700   -5.5200 C   0  0  0  0  0  3  0  0  0  0  0  0
   -6.6090    1.7400   -5.5300 O   0  0  0  0  0  0  0  0  0  0  0  0
   -4.4620    3.8040   -5.9870 C   0  0  2  0  0  0  0  0  0  0  0  0
   -5.4400    4.1780   -6.2900 H   0  0  0  0  0  0  0  0  0  0  0  0
   -3.3750    4.5860   -6.7450 C   0  0  0  0  0  0  0  0  0  0  0  0
   -2.4260    4.4330   -6.2310 H   0  0  0  0  0  0  0  0  0  0  0  0
   -3.3090    4.1820   -7.7550 H   0  0  0  0  0  0  0  0  0  0  0  0
   -4.3050    4.0130   -4.4580 C   0  0  0  0  0  0  0  0  0  0  0  0
   -5.1000    3.4810   -3.9360 H   0  0  0  0  0  0  0  0  0  0  0  0
   -3.3370    3.6280   -4.1370 H   0  0  0  0  0  0  0  0  0  0  0  0
   -4.3670    5.0770   -4.2300 H   0  0  0  0  0  0  0  0  0  0  0  0
   -3.6210    6.0930   -6.8510 C   0  0  0  0  0  0  0  0  0  0  0  0
   -4.5590    6.2710   -7.3760 H   0  0  0  0  0  0  0  0  0  0  0  0
   -3.6760    6.5220   -5.8510 H   0  0  0  0  0  0  0  0  0  0  0  0
   -2.8020    6.5560   -7.4010 H   0  0  0  0  0  0  0  0  0  0  0  0
   -7.1030    4.9550  -11.2140 N   0  0  0  0  0  2  0  0  0  0  0  0
   -6.1220    4.6450  -11.0650 H   0  0  0  0  0  0  0  0  0  0  0  0
   -7.3690    6.3930  -11.2260 C   0  0  2  0  0  0  0  0  0  0  0  0
   -8.4260    6.5500  -11.4390 H   0  0  0  0  0  0  0  0  0  0  0  0
   -6.5510    7.1110  -12.3230 C   0  0  0  0  0  3  0  0  0  0  0  0
   -5.3670    6.8340  -12.4820 O   0  0  0  0  0  0  0  0  0  0  0  0
   -6.9990    6.9690   -9.8590 C   0  0  0  0  0  0  0  0  0  0  0  0
   -5.9460    6.7590   -9.6690 H   0  0  0  0  0  0  0  0  0  0  0  0
   -7.1550    8.0480   -9.8840 H   0  0  0  0  0  0  0  0  0  0  0  0
   -7.8100    6.3970   -8.7320 C   0  0  0  0  0  0  0  0  0  0  0  0
   -9.1120    6.7880   -8.4820 N   0  0  0  0  0  0  0  0  0  0  0  0
   -7.5200    5.4300   -7.8250 C   0  0  0  0  0  0  0  0  0  0  0  0
   -6.5730    4.9000   -7.7210 H   0  0  0  0  0  0  0  0  0  0  0  0
   -9.5840    6.0790   -7.4730 C   0  0  0  0  0  0  0  0  0  0  0  0
  -10.5840    6.1660   -7.0470 H   0  0  0  0  0  0  0  0  0  0  0  0
   -8.6430    5.2470   -7.0660 N   0  0  0  0  0  0  0  0  0  0  0  0
   -4.3430    9.9870  -13.8600 N   0  0  0  0  0  2  0  0  0  0  0  0
   -3.9430    9.2670  -14.4950 H   0  0  0  0  0  0  0  0  0  0  0  0
   -3.4660   11.0950  -13.4060 C   0  0  2  0  0  0  0  0  0  0  0  0
   -3.9980   11.6020  -12.6010 H   0  0  0  0  0  0  0  0  0  0  0  0
   -3.1980   12.0700  -14.5610 C   0  0  0  0  0  3  0  0  0  0  0  0
   -2.6940   11.6660  -15.6100 O   0  0  0  0  0  0  0  0  0  0  0  0
   -2.1230   10.5980  -12.8370 C   0  0  0  0  0  0  0  0  0  0  0  0
   -1.6160   10.0380  -13.6230 H   0  0  0  0  0  0  0  0  0  0  0  0
   -1.2160   11.7770  -12.4230 C   0  0  0  0  0  0  0  0  0  0  0  0
   -1.0140   12.4010  -13.2930 H   0  0  0  0  0  0  0  0  0  0  0  0
   -1.7190   12.3690  -11.6580 H   0  0  0  0  0  0  0  0  0  0  0  0
   -0.2780   11.3900  -12.0260 H   0  0  0  0  0  0  0  0  0  0  0  0
   -2.3600    9.6900  -11.6480 C   0  0  0  0  0  0  0  0  0  0  0  0
   -2.8940   10.2400  -10.8730 H   0  0  0  0  0  0  0  0  0  0  0  0
   -2.9540    8.8310  -11.9610 H   0  0  0  0  0  0  0  0  0  0  0  0
   -1.4020    9.3470  -11.2570 H   0  0  0  0  0  0  0  0  0  0  0  0
   10.6540   11.3050   -5.5760 N   0  0  0  0  0  2  0  0  0  0  0  0
   10.3920   12.2850   -5.8030 H   0  0  0  0  0  0  0  0  0  0  0  0
   10.0940   10.6720   -4.3490 C   0  0  2  0  0  0  0  0  0  0  0  0
   10.8680    9.9920   -3.9930 H   0  0  0  0  0  0  0  0  0  0  0  0
    8.8430    9.8410   -4.6350 C   0  0  0  0  0  0  0  0  0  0  0  0
    8.3760    9.1070   -3.7350 O   0  0  0  0  0  0  0  0  0  0  0  0
    9.8210   11.6790   -3.2540 C   0  0  0  0  0  0  0  0  0  0  0  0
   10.7510   12.1790   -2.9810 H   0  0  0  0  0  0  0  0  0  0  0  0
    9.1020   12.4160   -3.6110 H   0  0  0  0  0  0  0  0  0  0  0  0
    9.4140   11.1650   -2.3830 H   0  0  0  0  0  0  0  0  0  0  0  0
    8.3280    9.9240   -5.8760 N   0  0  0  0  0  0  0  0  0  0  0  0
    8.8050   10.5390   -6.5650 H   0  0  0  0  0  0  0  0  0  0  0  0
    7.1420    9.2010   -6.3060 C   0  0  2  0  0  0  0  0  0  0  0  0
    6.4000    9.3360   -5.5190 H   0  0  0  0  0  0  0  0  0  0  0  0
    7.4250    7.7530   -6.4980 C   0  0  0  0  0  0  0  0  0  0  0  0
    8.5700    7.2700   -6.4620 O   0  0  0  0  0  0  0  0  0  0  0  0
    6.6180    9.7450   -7.6390 C   0  0  0  0  0  0  0  0  0  0  0  0
    5.6190    9.3460   -7.8150 H   0  0  0  0  0  0  0  0  0  0  0  0
    7.2840    9.4210   -8.4390 H   0  0  0  0  0  0  0  0  0  0  0  0
    6.5530   11.1910   -7.6390 O   0  0  0  0  0  0  0  0  0  0  0  0
    6.2110   11.5050   -8.5140 H   0  0  0  0  0  0  0  0  0  0  0  0
    6.3550    7.0580   -6.8100 N   0  0  0  0  0  0  0  0  0  0  0  0
    5.4610    7.5640   -6.9720 H   0  0  0  0  0  0  0  0  0  0  0  0
    6.3700    5.6400   -6.9350 C   0  0  2  0  0  0  0  0  0  0  0  0
    7.1620    5.1570   -6.3640 H   0  0  0  0  0  0  0  0  0  0  0  0
    6.5790    5.3360   -8.4090 C   0  0  0  0  0  3  0  0  0  0  0  0
    6.0940    6.0730   -9.2600 O   0  0  0  0  0  0  0  0  0  0  0  0
    5.0220    5.1190   -6.4090 C   0  0  0  0  0  0  0  0  0  0  0  0
    4.2350    5.7010   -6.8870 H   0  0  0  0  0  0  0  0  0  0  0  0
    4.9330    4.0750   -6.7090 H   0  0  0  0  0  0  0  0  0  0  0  0
    4.7900    5.1880   -4.8740 C   0  0  0  0  0  0  0  0  0  0  0  0
    5.0100    6.2120   -4.5710 H   0  0  0  0  0  0  0  0  0  0  0  0
    3.3110    4.7880   -4.5700 C   0  0  0  0  0  0  0  0  0  0  0  0
    2.6380    5.4790   -5.0770 H   0  0  0  0  0  0  0  0  0  0  0  0
    3.1300    3.7740   -4.9260 H   0  0  0  0  0  0  0  0  0  0  0  0
    3.1370    4.8330   -3.4950 H   0  0  0  0  0  0  0  0  0  0  0  0
    5.7270    4.2640   -4.0560 C   0  0  0  0  0  0  0  0  0  0  0  0
    5.5710    3.2290   -4.3610 H   0  0  0  0  0  0  0  0  0  0  0  0
    6.7640    4.5460   -4.2400 H   0  0  0  0  0  0  0  0  0  0  0  0
    5.5030    4.3690   -2.9940 H   0  0  0  0  0  0  0  0  0  0  0  0
    5.3050    3.2970  -10.3550 N   0  0  0  0  0  2  0  0  0  0  0  0
    5.3190    3.2100   -9.3190 H   0  0  0  0  0  0  0  0  0  0  0  0
    4.1120    2.9140  -11.0930 C   0  0  2  0  0  0  0  0  0  0  0  0
    4.3770    2.2010  -11.8730 H   0  0  0  0  0  0  0  0  0  0  0  0
    3.5250    4.1710  -11.7290 C   0  0  0  0  0  0  0  0  0  0  0  0
    2.8290    4.0740  -12.7370 O   0  0  0  0  0  0  0  0  0  0  0  0
    3.0890    2.1810  -10.2000 C   0  0  0  0  0  0  0  0  0  0  0  0
    2.2390    1.8870  -10.8160 H   0  0  0  0  0  0  0  0  0  0  0  0
    3.5630    1.2900   -9.7890 H   0  0  0  0  0  0  0  0  0  0  0  0
    2.5850    3.0260   -9.0590 C   0  0  0  0  0  0  0  0  0  0  0  0
    3.2850    2.9380   -8.2280 H   0  0  0  0  0  0  0  0  0  0  0  0
    2.5440    4.0640   -9.3890 H   0  0  0  0  0  0  0  0  0  0  0  0
    1.2080    2.6210   -8.5730 C   0  0  0  0  0  0  0  0  0  0  0  0
    0.7530    3.4710   -8.0650 H   0  0  0  0  0  0  0  0  0  0  0  0
    0.6000    2.3470   -9.4350 H   0  0  0  0  0  0  0  0  0  0  0  0
    1.2480    1.4500   -7.6160 C   0  0  0  0  0  0  0  0  0  0  0  0
    2.1300    1.5540   -6.9850 H   0  0  0  0  0  0  0  0  0  0  0  0
    1.3270    0.5330   -8.2000 H   0  0  0  0  0  0  0  0  0  0  0  0
    0.0220    1.3380   -6.7120 N   0  0  0  0  0  4  0  0  0  0  0  0
   -0.0630    2.2000   -6.1370 H   0  0  0  0  0  0  0  0  0  0  0  0
   -0.8300    1.2250   -7.2980 H   0  0  0  0  0  0  0  0  0  0  0  0
    0.1270    0.5130   -6.0880 H   0  0  0  0  0  0  0  0  0  0  0  0
    3.8150    5.3320  -11.1570 N   0  0  0  0  0  0  0  0  0  0  0  0
    4.3440    5.3460  -10.2620 H   0  0  0  0  0  0  0  0  0  0  0  0
    3.4060    6.5700  -11.7600 C   0  0  2  0  0  0  0  0  0  0  0  0
    2.6010    6.3500  -12.4610 H   0  0  0  0  0  0  0  0  0  0  0  0
    4.5830    7.2000  -12.5340 C   0  0  0  0  0  3  0  0  0  0  0  0
    4.3900    7.6850  -13.6440 O   0  0  0  0  0  0  0  0  0  0  0  0
    2.8330    7.5740  -10.6990 C   0  0  0  0  0  0  0  0  0  0  0  0
    1.7520    7.4410  -10.6510 H   0  0  0  0  0  0  0  0  0  0  0  0
    3.2710    7.3350   -9.7300 H   0  0  0  0  0  0  0  0  0  0  0  0
    3.1220    9.0400  -11.0060 C   0  0  0  0  0  0  0  0  0  0  0  0
    2.4190    9.6990  -11.9770 C   0  0  0  0  0  0  0  0  0  0  0  0
    1.6340    9.1740  -12.5200 H   0  0  0  0  0  0  0  0  0  0  0  0
    4.1580    9.7400  -10.3510 C   0  0  0  0  0  0  0  0  0  0  0  0
    4.7460    9.2230   -9.5930 H   0  0  0  0  0  0  0  0  0  0  0  0
    2.7000   11.0760  -12.2930 C   0  0  0  0  0  0  0  0  0  0  0  0
    2.1060   11.5870  -13.0510 H   0  0  0  0  0  0  0  0  0  0  0  0
    4.4620   11.1120  -10.6520 C   0  0  0  0  0  0  0  0  0  0  0  0
    5.2550   11.6380  -10.1200 H   0  0  0  0  0  0  0  0  0  0  0  0
    3.7150   11.7570  -11.6450 C   0  0  0  0  0  0  0  0  0  0  0  0
    3.9630   13.0750  -12.0290 O   0  0  0  0  0  0  0  0  0  0  0  0
    3.3260   13.3360  -12.7410 H   0  0  0  0  0  0  0  0  0  0  0  0
   10.9780    6.3050   -4.9480 N   0  0  0  0  0  2  0  0  0  0  0  0
   10.1880    5.9880   -5.5450 H   0  0  0  0  0  0  0  0  0  0  0  0
   10.7200    6.5580   -3.5270 C   0  0  2  0  0  0  0  0  0  0  0  0
   10.9690    7.6020   -3.3390 H   0  0  0  0  0  0  0  0  0  0  0  0
   11.6250    5.7190   -2.6400 C   0  0  0  0  0  3  0  0  0  0  0  0
   12.2670    6.2920   -1.7970 O   0  0  0  0  0  0  0  0  0  0  0  0
    9.2040    6.4100   -3.1540 C   0  0  0  0  0  0  0  0  0  0  0  0
    8.6640    7.2090   -3.6620 H   0  0  0  0  0  0  0  0  0  0  0  0
    8.8680    5.4460   -3.5360 H   0  0  0  0  0  0  0  0  0  0  0  0
    8.8060    6.4750   -1.6050 C   0  0  0  0  0  0  0  0  0  0  0  0
    9.0730    5.5270   -1.1380 H   0  0  0  0  0  0  0  0  0  0  0  0
    9.3690    7.2810   -1.1350 H   0  0  0  0  0  0  0  0  0  0  0  0
    7.2710    6.7340   -1.3710 C   0  0  0  0  0  0  0  0  0  0  0  0
    6.9860    6.4380   -0.3620 H   0  0  0  0  0  0  0  0  0  0  0  0
    6.6770    6.1740   -2.0940 H   0  0  0  0  0  0  0  0  0  0  0  0
    7.0740    8.1750   -1.5550 N   0  0  0  0  0  0  0  0  0  0  0  0
    7.9010    8.7810   -1.3810 H   0  0  0  0  0  0  0  0  0  0  0  0
    5.9530    8.7950   -1.9200 C   0  0  0  0  0  0  0  0  0  0  0  0
    4.8300    8.1290   -2.1550 N   0  0  0  0  0  4  0  0  0  0  0  0
    4.8090    7.0940   -2.0560 H   0  0  0  0  0  0  0  0  0  0  0  0
    3.9710    8.6420   -2.4390 H   0  0  0  0  0  0  0  0  0  0  0  0
    5.9750   10.1110   -2.0680 N   0  0  0  0  0  0  0  0  0  0  0  0
    6.8550   10.6390   -1.9000 H   0  0  0  0  0  0  0  0  0  0  0  0
    5.1120   10.6170   -2.3520 H   0  0  0  0  0  0  0  0  0  0  0  0
   11.6800   13.6970    2.1500 N   0  0  0  0  0  2  0  0  0  0  0  0
   11.0060   14.3750    1.7400 H   0  0  0  0  0  0  0  0  0  0  0  0
   12.3750   12.7460    1.2760 C   0  0  2  0  0  0  0  0  0  0  0  0
   12.5890   11.8420    1.8460 H   0  0  0  0  0  0  0  0  0  0  0  0
   13.6730   13.4000    0.7880 C   0  0  0  0  0  3  0  0  0  0  0  0
   13.6690   14.3550    0.0170 O   0  0  0  0  0  0  0  0  0  0  0  0
   11.5200   12.3200    0.0890 C   0  0  0  0  0  0  0  0  0  0  0  0
   11.3570   13.1990   -0.5350 H   0  0  0  0  0  0  0  0  0  0  0  0
   12.0810   11.5750   -0.4740 H   0  0  0  0  0  0  0  0  0  0  0  0
   10.1640   11.7270    0.4160 C   0  0  0  0  0  0  0  0  0  0  0  0
   10.0310   10.3500    0.7370 C   0  0  0  0  0  0  0  0  0  0  0  0
   10.9170    9.7150    0.7680 H   0  0  0  0  0  0  0  0  0  0  0  0
    9.0060   12.5450    0.3790 C   0  0  0  0  0  0  0  0  0  0  0  0
    9.1020   13.6000    0.1210 H   0  0  0  0  0  0  0  0  0  0  0  0
    8.7740    9.8000    1.0140 C   0  0  0  0  0  0  0  0  0  0  0  0
    8.6750    8.7420    1.2580 H   0  0  0  0  0  0  0  0  0  0  0  0
    7.7410   12.0170    0.6690 C   0  0  0  0  0  0  0  0  0  0  0  0
    6.8570   12.6550    0.6610 H   0  0  0  0  0  0  0  0  0  0  0  0
    7.6340   10.6360    0.9730 C   0  0  0  0  0  0  0  0  0  0  0  0
    6.3730   10.1120    1.2340 O   0  0  0  0  0  0  0  0  0  0  0  0
    6.4530    9.1450    1.4290 H   0  0  0  0  0  0  0  0  0  0  0  0
    6.8140   13.4770   -8.2220 H   0  0  0  0  0  0  0  0  0  0  0  0
   -8.7350    4.5970   -6.3320 H   0  0  0  0  0  0  0  0  0  0  0  0
  1  2  1  0
  1  3  1  0
  3  4  1  6
  3  5  1  0
  3  7  1  0
  5  6  2  0
  7  8  1  0
  7  9  1  0
  7 10  1  0
 10 11  2  0
 10 12  1  0
 12250  1  0
 13 14  1  0
 13 15  1  0
 15 16  1  6
 15 17  1  0
 15 19  1  0
 17 18  2  0
 17 24  1  0
 19 20  1  0
 19 21  1  0
 19 22  1  0
 22 23  1  0
 24 25  1  0
 24 26  1  0
 26 27  1  1
 26 28  1  0
 26 30  1  0
 28 29  2  0
 28 35  1  0
 30 31  1  0
 30 32  1  0
 30 33  1  0
 33 34  1  0
 35 36  1  0
 35 37  1  0
 37 38  1  6
 37 39  1  0
 37 41  1  0
 39 40  2  0
 41 42  1  0
 41 43  1  0
 41 44  1  0
 44 45  2  0
 44 47  1  0
 45 46  1  0
 45 49  1  0
 47 48  1  0
 47 51  2  0
 49 50  1  0
 49 53  2  0
 51 52  1  0
 51 53  1  0
 53 54  1  0
 55 56  1  0
 55 57  1  0
 57 58  1  6
 57 59  1  0
 57 61  1  0
 59 60  2  0
 61 62  1  0
 61 63  1  0
 61 67  1  0
 63 64  1  0
 63 65  1  0
 63 66  1  0
 67 68  1  0
 67 69  1  0
 67 70  1  0
 71 72  1  0
 71 73  1  0
 73 74  1  1
 73 75  1  0
 73 77  1  0
 75 76  2  0
 77 78  1  6
 77 79  1  0
 77 82  1  0
 79 80  1  0
 79 81  1  0
 79 86  1  0
 82 83  1  0
 82 84  1  0
 82 85  1  0
 86 87  1  0
 86 88  1  0
 86 89  1  0
 90 91  1  0
 90 92  1  0
 92 93  1  6
 92 94  1  0
 92 96  1  0
 94 95  2  0
 96 97  1  0
 96 98  1  0
 96 99  1  0
 99100  1  0
 99101  2  0
100103  2  0
101102  1  0
101105  1  0
103104  1  0
103105  1  0
105251  1  0
106107  1  0
106108  1  0
108109  1  1
108110  1  0
108112  1  0
110111  2  0
112113  1  0
112114  1  0
112118  1  0
114115  1  0
114116  1  0
114117  1  0
118119  1  0
118120  1  0
118121  1  0
122123  1  0
122124  1  0
124125  1  1
124126  1  0
124128  1  0
126127  2  0
126132  1  0
128129  1  0
128130  1  0
128131  1  0
132133  1  0
132134  1  0
134135  1  1
134136  1  0
134138  1  0
136137  2  0
136143  1  0
138139  1  0
138140  1  0
138141  1  0
141142  1  0
143144  1  0
143145  1  0
145146  1  1
145147  1  0
145149  1  0
147148  2  0
149150  1  0
149151  1  0
149152  1  0
152153  1  0
152154  1  0
152158  1  0
154155  1  0
154156  1  0
154157  1  0
158159  1  0
158160  1  0
158161  1  0
162163  1  0
162164  1  0
164165  1  6
164166  1  0
164168  1  0
166167  2  0
166184  1  0
168169  1  0
168170  1  0
168171  1  0
171172  1  0
171173  1  0
171174  1  0
174175  1  0
174176  1  0
174177  1  0
177178  1  0
177179  1  0
177180  1  0
180181  1  0
180182  1  0
180183  1  0
184185  1  0
184186  1  0
186187  1  6
186188  1  0
186190  1  0
188189  2  0
190191  1  0
190192  1  0
190193  1  0
193194  2  0
193196  1  0
194195  1  0
194198  1  0
196197  1  0
196200  2  0
198199  1  0
198202  2  0
200201  1  0
200202  1  0
202203  1  0
203204  1  0
205206  1  0
205207  1  0
207208  1  6
207209  1  0
207211  1  0
209210  2  0
211212  1  0
211213  1  0
211214  1  0
214215  1  0
214216  1  0
214217  1  0
217218  1  0
217219  1  0
217220  1  0
220221  1  0
220222  1  0
222223  2  0
222226  1  0
223224  1  0
223225  1  0
226227  1  0
226228  1  0
229230  1  0
229231  1  0
231232  1  1
231233  1  0
231235  1  0
233234  2  0
235236  1  0
235237  1  0
235238  1  0
238239  2  0
238241  1  0
239240  1  0
239243  1  0
241242  1  0
241245  2  0
243244  1  0
243247  2  0
245246  1  0
245247  1  0
247248  1  0
248249  1  0
M  RAD  8   1   2   5   2  13   2  39   2  55   2  59   2  71   2  75   2
M  RAD  8  90   2  94   2 106   2 110   2 122   2 147   2 162   2 188   2
M  CHG  2 180   1 223   1
M  RAD  4 205   2 209   2 229   2 233   2
M  END
$$$$

     RDKit          3D

251245  0  0  0  0  0  0  0  0999 V2000
    8.2390   15.7430  -10.2460 N   0  0  0  0  0  2  0  0  0  0  0  0
    8.4060   14.8450   -9.7480 H   0  0  0  0  0  0  0  0  0  0  0  0
    7.1270   16.5820   -9.8330 C   0  0  2  0  0  0  0  0  0  0  0  0
    6.5240   16.7530  -10.7240 H   0  0  0  0  0  0  0  0  0  0  0  0
    7.5010   17.9630   -9.3590 C   0  0  0  0  0  3  0  0  0  0  0  0
    8.3130   18.1090   -8.4540 O   0  0  0  0  0  0  0  0  0  0  0  0
    6.3630   15.8620   -8.7680 C   0  0  0  0  0  0  0  0  0  0  0  0
    7.0440   15.5910   -7.9610 H   0  0  0  0  0  0  0  0  0  0  0  0
    5.5850   16.5200   -8.3800 H   0  0  0  0  0  0  0  0  0  0  0  0
    5.7360   14.6350   -9.3040 C   0  0  0  0  0  0  0  0  0  0  0  0
    4.8520   14.7920  -10.1880 O   0  0  0  0  0  0  0  0  0  0  0  0
    6.1520   13.5130   -8.8840 O   0  0  0  0  0  0  0  0  0  0  0  0
    1.6580   16.8130  -11.9920 N   0  0  0  0  0  2  0  0  0  0  0  0
    2.3630   16.6600  -11.2430 H   0  0  0  0  0  0  0  0  0  0  0  0
    0.5750   15.8710  -12.1280 C   0  0  2  0  0  0  0  0  0  0  0  0
    0.1290   15.9910  -13.1150 H   0  0  0  0  0  0  0  0  0  0  0  0
   -0.5220   16.1130  -11.1130 C   0  0  0  0  0  0  0  0  0  0  0  0
   -0.2990   16.7340  -10.0760 O   0  0  0  0  0  0  0  0  0  0  0  0
    1.1300   14.4960  -11.9520 C   0  0  0  0  0  0  0  0  0  0  0  0
    0.3140   13.7740  -11.9180 H   0  0  0  0  0  0  0  0  0  0  0  0
    1.6970   14.4460  -11.0220 H   0  0  0  0  0  0  0  0  0  0  0  0
    1.9940   14.1960  -13.0610 O   0  0  0  0  0  0  0  0  0  0  0  0
    2.3660   13.2850  -12.9510 H   0  0  0  0  0  0  0  0  0  0  0  0
   -1.7070   15.5990  -11.3820 N   0  0  0  0  0  0  0  0  0  0  0  0
   -1.8300   15.0390  -12.2500 H   0  0  0  0  0  0  0  0  0  0  0  0
   -2.8500   15.7940  -10.4960 C   0  0  2  0  0  0  0  0  0  0  0  0
   -2.4940   15.6940   -9.4710 H   0  0  0  0  0  0  0  0  0  0  0  0
   -3.9360   14.7420  -10.7100 C   0  0  0  0  0  0  0  0  0  0  0  0
   -4.1170   14.2150  -11.8220 O   0  0  0  0  0  0  0  0  0  0  0  0
   -3.4310   17.1680  -10.7260 C   0  0  0  0  0  0  0  0  0  0  0  0
   -3.6970   17.2780  -11.7770 H   0  0  0  0  0  0  0  0  0  0  0  0
   -2.6920   17.9230  -10.4590 H   0  0  0  0  0  0  0  0  0  0  0  0
   -4.5930   17.3400   -9.9250 O   0  0  0  0  0  0  0  0  0  0  0  0
   -4.9690   18.2430  -10.0800 H   0  0  0  0  0  0  0  0  0  0  0  0
   -4.6520   14.4140   -9.6350 N   0  0  0  0  0  0  0  0  0  0  0  0
   -4.3590   14.7920   -8.7110 H   0  0  0  0  0  0  0  0  0  0  0  0
   -5.8320   13.5460   -9.6910 C   0  0  2  0  0  0  0  0  0  0  0  0
   -5.6450   12.7780  -10.4420 H   0  0  0  0  0  0  0  0  0  0  0  0
   -7.0770   14.3290  -10.1220 C   0  0  0  0  0  3  0  0  0  0  0  0
   -8.0250   13.7390  -10.5890 O   0  0  0  0  0  0  0  0  0  0  0  0
   -6.0610   12.8570   -8.3570 C   0  0  0  0  0  0  0  0  0  0  0  0
   -5.9730   13.6020   -7.5670 H   0  0  0  0  0  0  0  0  0  0  0  0
   -7.0700   12.4440   -8.3540 H   0  0  0  0  0  0  0  0  0  0  0  0
   -5.0730   11.7210   -8.0610 C   0  0  0  0  0  0  0  0  0  0  0  0
   -4.0720   11.8810   -7.1020 C   0  0  0  0  0  0  0  0  0  0  0  0
   -3.9860   12.8270   -6.5670 H   0  0  0  0  0  0  0  0  0  0  0  0
   -5.1740   10.4980   -8.7080 C   0  0  0  0  0  0  0  0  0  0  0  0
   -5.9560   10.3530   -9.4530 H   0  0  0  0  0  0  0  0  0  0  0  0
   -3.1820   10.8480   -6.8190 C   0  0  0  0  0  0  0  0  0  0  0  0
   -2.4060   10.9870   -6.0660 H   0  0  0  0  0  0  0  0  0  0  0  0
   -4.2920    9.4420   -8.4250 C   0  0  0  0  0  0  0  0  0  0  0  0
   -4.4060    8.4830   -8.9310 H   0  0  0  0  0  0  0  0  0  0  0  0
   -3.2860    9.6220   -7.5080 C   0  0  0  0  0  0  0  0  0  0  0  0
   -2.5720    8.8220   -7.3140 H   0  0  0  0  0  0  0  0  0  0  0  0
   -3.3140    5.0230  -13.0570 N   0  0  0  0  0  2  0  0  0  0  0  0
   -4.1400    5.6150  -12.8370 H   0  0  0  0  0  0  0  0  0  0  0  0
   -2.5170    4.4610  -11.9940 C   0  0  2  0  0  0  0  0  0  0  0  0
   -1.7250    3.8470  -12.4230 H   0  0  0  0  0  0  0  0  0  0  0  0
   -3.4380    3.6400  -11.1070 C   0  0  0  0  0  3  0  0  0  0  0  0
   -4.4710    4.1900  -10.6370 O   0  0  0  0  0  0  0  0  0  0  0  0
   -1.8540    5.5840  -11.1350 C   0  0  0  0  0  0  0  0  0  0  0  0
   -2.6490    6.2450  -10.7900 H   0  0  0  0  0  0  0  0  0  0  0  0
   -1.1450    4.9970   -9.9330 C   0  0  0  0  0  0  0  0  0  0  0  0
   -1.8650    4.4610   -9.3150 H   0  0  0  0  0  0  0  0  0  0  0  0
   -0.3700    4.3090  -10.2700 H   0  0  0  0  0  0  0  0  0  0  0  0
   -0.6920    5.8000   -9.3520 H   0  0  0  0  0  0  0  0  0  0  0  0
   -0.8790    6.3820  -11.9530 C   0  0  0  0  0  0  0  0  0  0  0  0
   -0.0980    5.7220  -12.3300 H   0  0  0  0  0  0  0  0  0  0  0  0
   -1.4020    6.8440  -12.7900 H   0  0  0  0  0  0  0  0  0  0  0  0
   -0.4320    7.1570  -11.3300 H   0  0  0  0  0  0  0  0  0  0  0  0
   -4.5210    2.0210   -7.7850 N   0  0  0  0  0  2  0  0  0  0  0  0
   -5.4600    2.1270   -8.2190 H   0  0  0  0  0  0  0  0  0  0  0  0
   -4.3760    2.2860   -6.3400 C   0  0  2  0  0  0  0  0  0  0  0  0
   -3.3700    1.9630   -6.0710 H   0  0  0  0  0  0  0  0  0  0  0  0
   -5.3740    1.4700   -5.5200 C   0  0  0  0  0  3  0  0  0  0  0  0
   -6.6090    1.7400   -5.5300 O   0  0  0  0  0  0  0  0  0  0  0  0
   -4.4620    3.8040   -5.9870 C   0  0  2  0  0  0  0  0  0  0  0  0
   -5.4400    4.1780   -6.2900 H   0  0  0  0  0  0  0  0  0  0  0  0
   -3.3750    4.5860   -6.7450 C   0  0  0  0  0  0  0  0  0  0  0  0
   -2.4260    4.4330   -6.2310 H   0  0  0  0  0  0  0  0  0  0  0  0
   -3.3090    4.1820   -7.7550 H   0  0  0  0  0  0  0  0  0  0  0  0
   -4.3050    4.0130   -4.4580 C   0  0  0  0  0  0  0  0  0  0  0  0
   -5.1000    3.4810   -3.9360 H   0  0  0  0  0  0  0  0  0  0  0  0
   -3.3370    3.6280   -4.1370 H   0  0  0  0  0  0  0  0  0  0  0  0
   -4.3670    5.0770   -4.2300 H   0  0  0  0  0  0  0  0  0  0  0  0
   -3.6210    6.0930   -6.8510 C   0  0  0  0  0  0  0  0  0  0  0  0
   -4.5590    6.2710   -7.3760 H   0  0  0  0  0  0  0  0  0  0  0  0
   -3.6760    6.5220   -5.8510 H   0  0  0  0  0  0  0  0  0  0  0  0
   -2.8020    6.5560   -7.4010 H   0  0  0  0  0  0  0  0  0  0  0  0
   -7.1030    4.9550  -11.2140 N   0  0  0  0  0  2  0  0  0  0  0  0
   -6.1220    4.6450  -11.0650 H   0  0  0  0  0  0  0  0  0  0  0  0
   -7.3690    6.3930  -11.2260 C   0  0  2  0  0  0  0  0  0  0  0  0
   -8.4260    6.5500  -11.4390 H   0  0  0  0  0  0  0  0  0  0  0  0
   -6.5510    7.1110  -12.3230 C   0  0  0  0  0  3  0  0  0  0  0  0
   -5.3670    6.8340  -12.4820 O   0  0  0  0  0  0  0  0  0  0  0  0
   -6.9990    6.9690   -9.8590 C   0  0  0  0  0  0  0  0  0  0  0  0
   -5.9460    6.7590   -9.6690 H   0  0  0  0  0  0  0  0  0  0  0  0
   -7.1550    8.0480   -9.8840 H   0  0  0  0  0  0  0  0  0  0  0  0
   -7.8100    6.3970   -8.7320 C   0  0  0  0  0  0  0  0  0  0  0  0
   -9.1120    6.7880   -8.4820 N   0  0  0  0  0  0  0  0  0  0  0  0
   -7.5200    5.4300   -7.8250 C   0  0  0  0  0  0  0  0  0  0  0  0
   -6.5730    4.9000   -7.7210 H   0  0  0  0  0  0  0  0  0  0  0  0
   -9.5840    6.0790   -7.4730 C   0  0  0  0  0  0  0  0  0  0  0  0
  -10.5840    6.1660   -7.0470 H   0  0  0  0  0  0  0  0  0  0  0  0
   -8.6430    5.2470   -7.0660 N   0  0  0  0  0  0  0  0  0  0  0  0
   -4.3430    9.9870  -13.8600 N   0  0  0  0  0  2  0  0  0  0  0  0
   -3.9430    9.2670  -14.4950 H   0  0  0  0  0  0  0  0  0  0  0  0
   -3.4660   11.0950  -13.4060 C   0  0  2  0  0  0  0  0  0  0  0  0
   -3.9980   11.6020  -12.6010 H   0  0  0  0  0  0  0  0  0  0  0  0
   -3.1980   12.0700  -14.5610 C   0  0  0  0  0  3  0  0  0  0  0  0
   -2.6940   11.6660  -15.6100 O   0  0  0  0  0  0  0  0  0  0  0  0
   -2.1230   10.5980  -12.8370 C   0  0  0  0  0  0  0  0  0  0  0  0
   -1.6160   10.0380  -13.6230 H   0  0  0  0  0  0  0  0  0  0  0  0
   -1.2160   11.7770  -12.4230 C   0  0  0  0  0  0  0  0  0  0  0  0
   -1.0140   12.4010  -13.2930 H   0  0  0  0  0  0  0  0  0  0  0  0
   -1.7190   12.3690  -11.6580 H   0  0  0  0  0  0  0  0  0  0  0  0
   -0.2780   11.3900  -12.0260 H   0  0  0  0  0  0  0  0  0  0  0  0
   -2.3600    9.6900  -11.6480 C   0  0  0  0  0  0  0  0  0  0  0  0
   -2.8940   10.2400  -10.8730 H   0  0  0  0  0  0  0  0  0  0  0  0
   -2.9540    8.8310  -11.9610 H   0  0  0  0  0  0  0  0  0  0  0  0
   -1.4020    9.3470  -11.2570 H   0  0  0  0  0  0  0  0  0  0  0  0
   10.6540   11.3050   -5.5760 N   0  0  0  0  0  2  0  0  0  0  0  0
   10.3920   12.2850   -5.8030 H   0  0  0  0  0  0  0  0  0  0  0  0
   10.0940   10.6720   -4.3490 C   0  0  2  0  0  0  0  0  0  0  0  0
   10.8680    9.9920   -3.9930 H   0  0  0  0  0  0  0  0  0  0  0  0
    8.8430    9.8410   -4.6350 C   0  0  0  0  0  0  0  0  0  0  0  0
    8.3760    9.1070   -3.7350 O   0  0  0  0  0  0  0  0  0  0  0  0
    9.8210   11.6790   -3.2540 C   0  0  0  0  0  0  0  0  0  0  0  0
   10.7510   12.1790   -2.9810 H   0  0  0  0  0  0  0  0  0  0  0  0
    9.1020   12.4160   -3.6110 H   0  0  0  0  0  0  0  0  0  0  0  0
    9.4140   11.1650   -2.3830 H   0  0  0  0  0  0  0  0  0  0  0  0
    8.3280    9.9240   -5.8760 N   0  0  0  0  0  0  0  0  0  0  0  0
    8.8050   10.5390   -6.5650 H   0  0  0  0  0  0  0  0  0  0  0  0
    7.1420    9.2010   -6.3060 C   0  0  2  0  0  0  0  0  0  0  0  0
    6.4000    9.3360   -5.5190 H   0  0  0  0  0  0  0  0  0  0  0  0
    7.4250    7.7530   -6.4980 C   0  0  0  0  0  0  0  0  0  0  0  0
    8.5700    7.2700   -6.4620 O   0  0  0  0  0  0  0  0  0  0  0  0
    6.6180    9.7450   -7.6390 C   0  0  0  0  0  0  0  0  0  0  0  0
    5.6190    9.3460   -7.8150 H   0  0  0  0  0  0  0  0  0  0  0  0
    7.2840    9.4210   -8.4390 H   0  0  0  0  0  0  0  0  0  0  0  0
    6.5530   11.1910   -7.6390 O   0  0  0  0  0  0  0  0  0  0  0  0
    6.2110   11.5050   -8.5140 H   0  0  0  0  0  0  0  0  0  0  0  0
    6.3550    7.0580   -6.8100 N   0  0  0  0  0  0  0  0  0  0  0  0
    5.4610    7.5640   -6.9720 H   0  0  0  0  0  0  0  0  0  0  0  0
    6.3700    5.6400   -6.9350 C   0  0  2  0  0  0  0  0  0  0  0  0
    7.1620    5.1570   -6.3640 H   0  0  0  0  0  0  0  0  0  0  0  0
    6.5790    5.3360   -8.4090 C   0  0  0  0  0  3  0  0  0  0  0  0
    6.0940    6.0730   -9.2600 O   0  0  0  0  0  0  0  0  0  0  0  0
    5.0220    5.1190   -6.4090 C   0  0  0  0  0  0  0  0  0  0  0  0
    4.2350    5.7010   -6.8870 H   0  0  0  0  0  0  0  0  0  0  0  0
    4.9330    4.0750   -6.7090 H   0  0  0  0  0  0  0  0  0  0  0  0
    4.7900    5.1880   -4.8740 C   0  0  0  0  0  0  0  0  0  0  0  0
    5.0100    6.2120   -4.5710 H   0  0  0  0  0  0  0  0  0  0  0  0
    3.3110    4.7880   -4.5700 C   0  0  0  0  0  0  0  0  0  0  0  0
    2.6380    5.4790   -5.0770 H   0  0  0  0  0  0  0  0  0  0  0  0
    3.1300    3.7740   -4.9260 H   0  0  0  0  0  0  0  0  0  0  0  0
    3.1370    4.8330   -3.4950 H   0  0  0  0  0  0  0  0  0  0  0  0
    5.7270    4.2640   -4.0560 C   0  0  0  0  0  0  0  0  0  0  0  0
    5.5710    3.2290   -4.3610 H   0  0  0  0  0  0  0  0  0  0  0  0
    6.7640    4.5460   -4.2400 H   0  0  0  0  0  0  0  0  0  0  0  0
    5.5030    4.3690   -2.9940 H   0  0  0  0  0  0  0  0  0  0  0  0
    5.3050    3.2970  -10.3550 N   0  0  0  0  0  2  0  0  0  0  0  0
    5.3190    3.2100   -9.3190 H   0  0  0  0  0  0  0  0  0  0  0  0
    4.1120    2.9140  -11.0930 C   0  0  2  0  0  0  0  0  0  0  0  0
    4.3770    2.2010  -11.8730 H   0  0  0  0  0  0  0  0  0  0  0  0
    3.5250    4.1710  -11.7290 C   0  0  0  0  0  0  0  0  0  0  0  0
    2.8290    4.0740  -12.7370 O   0  0  0  0  0  0  0  0  0  0  0  0
    3.0890    2.1810  -10.2000 C   0  0  0  0  0  0  0  0  0  0  0  0
    2.2390    1.8870  -10.8160 H   0  0  0  0  0  0  0  0  0  0  0  0
    3.5630    1.2900   -9.7890 H   0  0  0  0  0  0  0  0  0  0  0  0
    2.5850    3.0260   -9.0590 C   0  0  0  0  0  0  0  0  0  0  0  0
    3.2850    2.9380   -8.2280 H   0  0  0  0  0  0  0  0  0  0  0  0
    2.5440    4.0640   -9.3890 H   0  0  0  0  0  0  0  0  0  0  0  0
    1.2080    2.6210   -8.5730 C   0  0  0  0  0  0  0  0  0  0  0  0
    0.7530    3.4710   -8.0650 H   0  0  0  0  0  0  0  0  0  0  0  0
    0.6000    2.3470   -9.4350 H   0  0  0  0  0  0  0  0  0  0  0  0
    1.2480    1.4500   -7.6160 C   0  0  0  0  0  0  0  0  0  0  0  0
    2.1300    1.5540   -6.9850 H   0  0  0  0  0  0  0  0  0  0  0  0
    1.3270    0.5330   -8.2000 H   0  0  0  0  0  0  0  0  0  0  0  0
    0.0220    1.3380   -6.7120 N   0  0  0  0  0  4  0  0  0  0  0  0
   -0.0630    2.2000   -6.1370 H   0  0  0  0  0  0  0  0  0  0  0  0
   -0.8300    1.2250   -7.2980 H   0  0  0  0  0  0  0  0  0  0  0  0
    0.1270    0.5130   -6.0880 H   0  0  0  0  0  0  0  0  0  0  0  0
    3.8150    5.3320  -11.1570 N   0  0  0  0  0  0  0  0  0  0  0  0
    4.3440    5.3460  -10.2620 H   0  0  0  0  0  0  0  0  0  0  0  0
    3.4060    6.5700  -11.7600 C   0  0  2  0  0  0  0  0  0  0  0  0
    2.6010    6.3500  -12.4610 H   0  0  0  0  0  0  0  0  0  0  0  0
    4.5830    7.2000  -12.5340 C   0  0  0  0  0  3  0  0  0  0  0  0
    4.3900    7.6850  -13.6440 O   0  0  0  0  0  0  0  0  0  0  0  0
    2.8330    7.5740  -10.6990 C   0  0  0  0  0  0  0  0  0  0  0  0
    1.7520    7.4410  -10.6510 H   0  0  0  0  0  0  0  0  0  0  0  0
    3.2710    7.3350   -9.7300 H   0  0  0  0  0  0  0  0  0  0  0  0
    3.1220    9.0400  -11.0060 C   0  0  0  0  0  0  0  0  0  0  0  0
    2.4190    9.6990  -11.9770 C   0  0  0  0  0  0  0  0  0  0  0  0
    1.6340    9.1740  -12.5200 H   0  0  0  0  0  0  0  0  0  0  0  0
    4.1580    9.7400  -10.3510 C   0  0  0  0  0  0  0  0  0  0  0  0
    4.7460    9.2230   -9.5930 H   0  0  0  0  0  0  0  0  0  0  0  0
    2.7000   11.0760  -12.2930 C   0  0  0  0  0  0  0  0  0  0  0  0
    2.1060   11.5870  -13.0510 H   0  0  0  0  0  0  0  0  0  0  0  0
    4.4620   11.1120  -10.6520 C   0  0  0  0  0  0  0  0  0  0  0  0
    5.2550   11.6380  -10.1200 H   0  0  0  0  0  0  0  0  0  0  0  0
    3.7150   11.7570  -11.6450 C   0  0  0  0  0  0  0  0  0  0  0  0
    3.9630   13.0750  -12.0290 O   0  0  0  0  0  0  0  0  0  0  0  0
    3.3260   13.3360  -12.7410 H   0  0  0  0  0  0  0  0  0  0  0  0
   10.9780    6.3050   -4.9480 N   0  0  0  0  0  2  0  0  0  0  0  0
   10.1880    5.9880   -5.5450 H   0  0  0  0  0  0  0  0  0  0  0  0
   10.7200    6.5580   -3.5270 C   0  0  2  0  0  0  0  0  0  0  0  0
   10.9690    7.6020   -3.3390 H   0  0  0  0  0  0  0  0  0  0  0  0
   11.6250    5.7190   -2.6400 C   0  0  0  0  0  3  0  0  0  0  0  0
   12.2670    6.2920   -1.7970 O   0  0  0  0  0  0  0  0  0  0  0  0
    9.2040    6.4100   -3.1540 C   0  0  0  0  0  0  0  0  0  0  0  0
    8.6640    7.2090   -3.6620 H   0  0  0  0  0  0  0  0  0  0  0  0
    8.8680    5.4460   -3.5360 H   0  0  0  0  0  0  0  0  0  0  0  0
    8.8060    6.4750   -1.6050 C   0  0  0  0  0  0  0  0  0  0  0  0
    9.0730    5.5270   -1.1380 H   0  0  0  0  0  0  0  0  0  0  0  0
    9.3690    7.2810   -1.1350 H   0  0  0  0  0  0  0  0  0  0  0  0
    7.2710    6.7340   -1.3710 C   0  0  0  0  0  0  0  0  0  0  0  0
    6.9860    6.4380   -0.3620 H   0  0  0  0  0  0  0  0  0  0  0  0
    6.6770    6.1740   -2.0940 H   0  0  0  0  0  0  0  0  0  0  0  0
    7.0740    8.1750   -1.5550 N   0  0  0  0  0  0  0  0  0  0  0  0
    7.9010    8.7810   -1.3810 H   0  0  0  0  0  0  0  0  0  0  0  0
    5.9530    8.7950   -1.9200 C   0  0  0  0  0  0  0  0  0  0  0  0
    4.8300    8.1290   -2.1550 N   0  0  0  0  0  4  0  0  0  0  0  0
    4.8090    7.0940   -2.0560 H   0  0  0  0  0  0  0  0  0  0  0  0
    3.9710    8.6420   -2.4390 H   0  0  0  0  0  0  0  0  0  0  0  0
    5.9750   10.1110   -2.0680 N   0  0  0  0  0  0  0  0  0  0  0  0
    6.8550   10.6390   -1.9000 H   0  0  0  0  0  0  0  0  0  0  0  0
    5.1120   10.6170   -2.3520 H   0  0  0  0  0  0  0  0  0  0  0  0
   11.6800   13.6970    2.1500 N   0  0  0  0  0  2  0  0  0  0  0  0
   11.0060   14.3750    1.7400 H   0  0  0  0  0  0  0  0  0  0  0  0
   12.3750   12.7460    1.2760 C   0  0  2  0  0  0  0  0  0  0  0  0
   12.5890   11.8420    1.8460 H   0  0  0  0  0  0  0  0  0  0  0  0
   13.6730   13.4000    0.7880 C   0  0  0  0  0  3  0  0  0  0  0  0
   13.6690   14.3550    0.0170 O   0  0  0  0  0  0  0  0  0  0  0  0
   11.5200   12.3200    0.0890 C   0  0  0  0  0  0  0  0  0  0  0  0
   11.3570   13.1990   -0.5350 H   0  0  0  0  0  0  0  0  0  0  0  0
   12.0810   11.5750   -0.4740 H   0  0  0  0  0  0  0  0  0  0  0  0
   10.1640   11.7270    0.4160 C   0  0  0  0  0  0  0  0  0  0  0  0
   10.0310   10.3500    0.7370 C   0  0  0  0  0  0  0  0  0  0  0  0
   10.9170    9.7150    0.7680 H   0  0  0  0  0  0  0  0  0  0  0  0
    9.0060   12.5450    0.3790 C   0  0  0  0  0  0  0  0  0  0  0  0
    9.1020   13.6000    0.1210 H   0  0  0  0  0  0  0  0  0  0  0  0
    8.7740    9.8000    1.0140 C   0  0  0  0  0  0  0  0  0  0  0  0
    8.6750    8.7420    1.2580 H   0  0  0  0  0  0  0  0  0  0  0  0
    7.7410   12.0170    0.6690 C   0  0  0  0  0  0  0  0  0  0  0  0
    6.8570   12.6550    0.6610 H   0  0  0  0  0  0  0  0  0  0  0  0
    7.6340   10.6360    0.9730 C   0  0  0  0  0  0  0  0  0  0  0  0
    6.3730   10.1120    1.2340 O   0  0  0  0  0  0  0  0  0  0  0  0
    6.4530    9.1450    1.4290 H   0  0  0  0  0  0  0  0  0  0  0  0
    6.8140   13.4770   -8.2220 H   0  0  0  0  0  0  0  0  0  0  0  0
   -8.7350    4.5970   -6.3320 H   0  0  0  0  0  0  0  0  0  0  0  0
  1  2  1  0
  1  3  1  0
  3  4  1  6
  3  5  1  0
  3  7  1  0
  5  6  2  0
  7  8  1  0
  7  9  1  0
  7 10  1  0
 10 11  2  0
 10 12  1  0
 12250  1  0
 13 14  1  0
 13 15  1  0
 15 16  1  6
 15 17  1  0
 15 19  1  0
 17 18  2  0
 17 24  1  0
 19 20  1  0
 19 21  1  0
 19 22  1  0
 22 23  1  0
 24 25  1  0
 24 26  1  0
 26 27  1  1
 26 28  1  0
 26 30  1  0
 28 29  2  0
 28 35  1  0
 30 31  1  0
 30 32  1  0
 30 33  1  0
 33 34  1  0
 35 36  1  0
 35 37  1  0
 37 38  1  6
 37 39  1  0
 37 41  1  0
 39 40  2  0
 41 42  1  0
 41 43  1  0
 41 44  1  0
 44 45  2  0
 44 47  1  0
 45 46  1  0
 45 49  1  0
 47 48  1  0
 47 51  2  0
 49 50  1  0
 49 53  2  0
 51 52  1  0
 51 53  1  0
 53 54  1  0
 55 56  1  0
 55 57  1  0
 57 58  1  6
 57 59  1  0
 57 61  1  0
 59 60  2  0
 61 62  1  0
 61 63  1  0
 61 67  1  0
 63 64  1  0
 63 65  1  0
 63 66  1  0
 67 68  1  0
 67 69  1  0
 67 70  1  0
 71 72  1  0
 71 73  1  0
 73 74  1  1
 73 75  1  0
 73 77  1  0
 75 76  2  0
 77 78  1  6
 77 79  1  0
 77 82  1  0
 79 80  1  0
 79 81  1  0
 79 86  1  0
 82 83  1  0
 82 84  1  0
 82 85  1  0
 86 87  1  0
 86 88  1  0
 86 89  1  0
 90 91  1  0
 90 92  1  0
 92 93  1  6
 92 94  1  0
 92 96  1  0
 94 95  2  0
 96 97  1  0
 96 98  1  0
 96 99  1  0
 99100  1  0
 99101  2  0
100103  2  0
101102  1  0
101105  1  0
103104  1  0
103105  1  0
105251  1  0
106107  1  0
106108  1  0
108109  1  1
108110  1  0
108112  1  0
110111  2  0
112113  1  0
112114  1  0
112118  1  0
114115  1  0
114116  1  0
114117  1  0
118119  1  0
118120  1  0
118121  1  0
122123  1  0
122124  1  0
124125  1  1
124126  1  0
124128  1  0
126127  2  0
126132  1  0
128129  1  0
128130  1  0
128131  1  0
132133  1  0
132134  1  0
134135  1  1
134136  1  0
134138  1  0
136137  2  0
136143  1  0
138139  1  0
138140  1  0
138141  1  0
141142  1  0
143144  1  0
143145  1  0
145146  1  1
145147  1  0
145149  1  0
147148  2  0
149150  1  0
149151  1  0
149152  1  0
152153  1  0
152154  1  0
152158  1  0
154155  1  0
154156  1  0
154157  1  0
158159  1  0
158160  1  0
158161  1  0
162163  1  0
162164  1  0
164165  1  6
164166  1  0
164168  1  0
166167  2  0
166184  1  0
168169  1  0
168170  1  0
168171  1  0
171172  1  0
171173  1  0
171174  1  0
174175  1  0
174176  1  0
174177  1  0
177178  1  0
177179  1  0
177180  1  0
180181  1  0
180182  1  0
180183  1  0
184185  1  0
184186  1  0
186187  1  6
186188  1  0
186190  1  0
188189  2  0
190191  1  0
190192  1  0
190193  1  0
193194  2  0
193196  1  0
194195  1  0
194198  1  0
196197  1  0
196200  2  0
198199  1  0
198202  2  0
200201  1  0
200202  1  0
202203  1  0
203204  1  0
205206  1  0
205207  1  0
207208  1  6
207209  1  0
207211  1  0
209210  2  0
211212  1  0
211213  1  0
211214  1  0
214215  1  0
214216  1  0
214217  1  0
217218  1  0
217219  1  0
217220  1  0
220221  1  0
220222  1  0
222223  2  0
222226  1  0
223224  1  0
223225  1  0
226227  1  0
226228  1  0
229230  1  0
229231  1  0
231232  1  1
231233  1  0
231235  1  0
233234  2  0
235236  1  0
235237  1  0
235238  1  0
238239  2  0
238241  1  0
239240  1  0
239243  1  0
241242  1  0
241245  2  0
243244  1  0
243247  2  0
245246  1  0
245247  1  0
247248  1  0
248249  1  0
M  RAD  8   1   2   5   2  13   2  39   2  55   2  59   2  71   2  75   2
M  RAD  8  90   2  94   2 106   2 110   2 122   2 147   2 162   2 188   2
M  CHG  2 180   1 223   1
M  RAD  4 205   2 209   2 229   2 233   2
M  END
$$$$

     RDKit          3D

251245  0  0  0  0  0  0  0  0999 V2000
    8.2390   15.7430  -10.2460 N   0  0  0  0  0  2  0  0  0  0  0  0
    8.4060   14.8450   -9.7480 H   0  0  0  0  0  0  0  0  0  0  0  0
    7.1270   16.5820   -9.8330 C   0  0  2  0  0  0  0  0  0  0  0  0
    6.5240   16.7530  -10.7240 H   0  0  0  0  0  0  0  0  0  0  0  0
    7.5010   17.9630   -9.3590 C   0  0  0  0  0  3  0  0  0  0  0  0
    8.3130   18.1090   -8.4540 O   0  0  0  0  0  0  0  0  0  0  0  0
    6.3630   15.8620   -8.7680 C   0  0  0  0  0  0  0  0  0  0  0  0
    7.0440   15.5910   -7.9610 H   0  0  0  0  0  0  0  0  0  0  0  0
    5.5850   16.5200   -8.3800 H   0  0  0  0  0  0  0  0  0  0  0  0
    5.7360   14.6350   -9.3040 C   0  0  0  0  0  0  0  0  0  0  0  0
    4.8520   14.7920  -10.1880 O   0  0  0  0  0  0  0  0  0  0  0  0
    6.1520   13.5130   -8.8840 O   0  0  0  0  0  0  0  0  0  0  0  0
    1.6580   16.8130  -11.9920 N   0  0  0  0  0  2  0  0  0  0  0  0
    2.3630   16.6600  -11.2430 H   0  0  0  0  0  0  0  0  0  0  0  0
    0.5750   15.8710  -12.1280 C   0  0  2  0  0  0  0  0  0  0  0  0
    0.1290   15.9910  -13.1150 H   0  0  0  0  0  0  0  0  0  0  0  0
   -0.5220   16.1130  -11.1130 C   0  0  0  0  0  0  0  0  0  0  0  0
   -0.2990   16.7340  -10.0760 O   0  0  0  0  0  0  0  0  0  0  0  0
    1.1300   14.4960  -11.9520 C   0  0  0  0  0  0  0  0  0  0  0  0
    0.3140   13.7740  -11.9180 H   0  0  0  0  0  0  0  0  0  0  0  0
    1.6970   14.4460  -11.0220 H   0  0  0  0  0  0  0  0  0  0  0  0
    1.9940   14.1960  -13.0610 O   0  0  0  0  0  0  0  0  0  0  0  0
    2.3660   13.2850  -12.9510 H   0  0  0  0  0  0  0  0  0  0  0  0
   -1.7070   15.5990  -11.3820 N   0  0  0  0  0  0  0  0  0  0  0  0
   -1.8300   15.0390  -12.2500 H   0  0  0  0  0  0  0  0  0  0  0  0
   -2.8500   15.7940  -10.4960 C   0  0  2  0  0  0  0  0  0  0  0  0
   -2.4940   15.6940   -9.4710 H   0  0  0  0  0  0  0  0  0  0  0  0
   -3.9360   14.7420  -10.7100 C   0  0  0  0  0  0  0  0  0  0  0  0
   -4.1170   14.2150  -11.8220 O   0  0  0  0  0  0  0  0  0  0  0  0
   -3.4310   17.1680  -10.7260 C   0  0  0  0  0  0  0  0  0  0  0  0
   -3.6970   17.2780  -11.7770 H   0  0  0  0  0  0  0  0  0  0  0  0
   -2.6920   17.9230  -10.4590 H   0  0  0  0  0  0  0  0  0  0  0  0
   -4.5930   17.3400   -9.9250 O   0  0  0  0  0  0  0  0  0  0  0  0
   -4.9690   18.2430  -10.0800 H   0  0  0  0  0  0  0  0  0  0  0  0
   -4.6520   14.4140   -9.6350 N   0  0  0  0  0  0  0  0  0  0  0  0
   -4.3590   14.7920   -8.7110 H   0  0  0  0  0  0  0  0  0  0  0  0
   -5.8320   13.5460   -9.6910 C   0  0  2  0  0  0  0  0  0  0  0  0
   -5.6450   12.7780  -10.4420 H   0  0  0  0  0  0  0  0  0  0  0  0
   -7.0770   14.3290  -10.1220 C   0  0  0  0  0  3  0  0  0  0  0  0
   -8.0250   13.7390  -10.5890 O   0  0  0  0  0  0  0  0  0  0  0  0
   -6.0610   12.8570   -8.3570 C   0  0  0  0  0  0  0  0  0  0  0  0
   -5.9730   13.6020   -7.5670 H   0  0  0  0  0  0  0  0  0  0  0  0
   -7.0700   12.4440   -8.3540 H   0  0  0  0  0  0  0  0  0  0  0  0
   -5.0730   11.7210   -8.0610 C   0  0  0  0  0  0  0  0  0  0  0  0
   -4.0720   11.8810   -7.1020 C   0  0  0  0  0  0  0  0  0  0  0  0
   -3.9860   12.8270   -6.5670 H   0  0  0  0  0  0  0  0  0  0  0  0
   -5.1740   10.4980   -8.7080 C   0  0  0  0  0  0  0  0  0  0  0  0
   -5.9560   10.3530   -9.4530 H   0  0  0  0  0  0  0  0  0  0  0  0
   -3.1820   10.8480   -6.8190 C   0  0  0  0  0  0  0  0  0  0  0  0
   -2.4060   10.9870   -6.0660 H   0  0  0  0  0  0  0  0  0  0  0  0
   -4.2920    9.4420   -8.4250 C   0  0  0  0  0  0  0  0  0  0  0  0
   -4.4060    8.4830   -8.9310 H   0  0  0  0  0  0  0  0  0  0  0  0
   -3.2860    9.6220   -7.5080 C   0  0  0  0  0  0  0  0  0  0  0  0
   -2.5720    8.8220   -7.3140 H   0  0  0  0  0  0  0  0  0  0  0  0
   -3.3140    5.0230  -13.0570 N   0  0  0  0  0  2  0  0  0  0  0  0
   -4.1400    5.6150  -12.8370 H   0  0  0  0  0  0  0  0  0  0  0  0
   -2.5170    4.4610  -11.9940 C   0  0  2  0  0  0  0  0  0  0  0  0
   -1.7250    3.8470  -12.4230 H   0  0  0  0  0  0  0  0  0  0  0  0
   -3.4380    3.6400  -11.1070 C   0  0  0  0  0  3  0  0  0  0  0  0
   -4.4710    4.1900  -10.6370 O   0  0  0  0  0  0  0  0  0  0  0  0
   -1.8540    5.5840  -11.1350 C   0  0  0  0  0  0  0  0  0  0  0  0
   -2.6490    6.2450  -10.7900 H   0  0  0  0  0  0  0  0  0  0  0  0
   -1.1450    4.9970   -9.9330 C   0  0  0  0  0  0  0  0  0  0  0  0
   -1.8650    4.4610   -9.3150 H   0  0  0  0  0  0  0  0  0  0  0  0
   -0.3700    4.3090  -10.2700 H   0  0  0  0  0  0  0  0  0  0  0  0
   -0.6920    5.8000   -9.3520 H   0  0  0  0  0  0  0  0  0  0  0  0
   -0.8790    6.3820  -11.9530 C   0  0  0  0  0  0  0  0  0  0  0  0
   -0.0980    5.7220  -12.3300 H   0  0  0  0  0  0  0  0  0  0  0  0
   -1.4020    6.8440  -12.7900 H   0  0  0  0  0  0  0  0  0  0  0  0
   -0.4320    7.1570  -11.3300 H   0  0  0  0  0  0  0  0  0  0  0  0
   -4.5210    2.0210   -7.7850 N   0  0  0  0  0  2  0  0  0  0  0  0
   -5.4600    2.1270   -8.2190 H   0  0  0  0  0  0  0  0  0  0  0  0
   -4.3760    2.2860   -6.3400 C   0  0  2  0  0  0  0  0  0  0  0  0
   -3.3700    1.9630   -6.0710 H   0  0  0  0  0  0  0  0  0  0  0  0
   -5.3740    1.4700   -5.5200 C   0  0  0  0  0  3  0  0  0  0  0  0
   -6.6090    1.7400   -5.5300 O   0  0  0  0  0  0  0  0  0  0  0  0
   -4.4620    3.8040   -5.9870 C   0  0  2  0  0  0  0  0  0  0  0  0
   -5.4400    4.1780   -6.2900 H   0  0  0  0  0  0  0  0  0  0  0  0
   -3.3750    4.5860   -6.7450 C   0  0  0  0  0  0  0  0  0  0  0  0
   -2.4260    4.4330   -6.2310 H   0  0  0  0  0  0  0  0  0  0  0  0
   -3.3090    4.1820   -7.7550 H   0  0  0  0  0  0  0  0  0  0  0  0
   -4.3050    4.0130   -4.4580 C   0  0  0  0  0  0  0  0  0  0  0  0
   -5.1000    3.4810   -3.9360 H   0  0  0  0  0  0  0  0  0  0  0  0
   -3.3370    3.6280   -4.1370 H   0  0  0  0  0  0  0  0  0  0  0  0
   -4.3670    5.0770   -4.2300 H   0  0  0  0  0  0  0  0  0  0  0  0
   -3.6210    6.0930   -6.8510 C   0  0  0  0  0  0  0  0  0  0  0  0
   -4.5590    6.2710   -7.3760 H   0  0  0  0  0  0  0  0  0  0  0  0
   -3.6760    6.5220   -5.8510 H   0  0  0  0  0  0  0  0  0  0  0  0
   -2.8020    6.5560   -7.4010 H   0  0  0  0  0  0  0  0  0  0  0  0
   -7.1030    4.9550  -11.2140 N   0  0  0  0  0  2  0  0  0  0  0  0
   -6.1220    4.6450  -11.0650 H   0  0  0  0  0  0  0  0  0  0  0  0
   -7.3690    6.3930  -11.2260 C   0  0  2  0  0  0  0  0  0  0  0  0
   -8.4260    6.5500  -11.4390 H   0  0  0  0  0  0  0  0  0  0  0  0
   -6.5510    7.1110  -12.3230 C   0  0  0  0  0  3  0  0  0  0  0  0
   -5.3670    6.8340  -12.4820 O   0  0  0  0  0  0  0  0  0  0  0  0
   -6.9990    6.9690   -9.8590 C   0  0  0  0  0  0  0  0  0  0  0  0
   -5.9460    6.7590   -9.6690 H   0  0  0  0  0  0  0  0  0  0  0  0
   -7.1550    8.0480   -9.8840 H   0  0  0  0  0  0  0  0  0  0  0  0
   -7.8100    6.3970   -8.7320 C   0  0  0  0  0  0  0  0  0  0  0  0
   -9.1120    6.7880   -8.4820 N   0  0  0  0  0  0  0  0  0  0  0  0
   -7.5200    5.4300   -7.8250 C   0  0  0  0  0  0  0  0  0  0  0  0
   -6.5730    4.9000   -7.7210 H   0  0  0  0  0  0  0  0  0  0  0  0
   -9.5840    6.0790   -7.4730 C   0  0  0  0  0  0  0  0  0  0  0  0
  -10.5840    6.1660   -7.0470 H   0  0  0  0  0  0  0  0  0  0  0  0
   -8.6430    5.2470   -7.0660 N   0  0  0  0  0  0  0  0  0  0  0  0
   -4.3430    9.9870  -13.8600 N   0  0  0  0  0  2  0  0  0  0  0  0
   -3.9430    9.2670  -14.4950 H   0  0  0  0  0  0  0  0  0  0  0  0
   -3.4660   11.0950  -13.4060 C   0  0  2  0  0  0  0  0  0  0  0  0
   -3.9980   11.6020  -12.6010 H   0  0  0  0  0  0  0  0  0  0  0  0
   -3.1980   12.0700  -14.5610 C   0  0  0  0  0  3  0  0  0  0  0  0
   -2.6940   11.6660  -15.6100 O   0  0  0  0  0  0  0  0  0  0  0  0
   -2.1230   10.5980  -12.8370 C   0  0  0  0  0  0  0  0  0  0  0  0
   -1.6160   10.0380  -13.6230 H   0  0  0  0  0  0  0  0  0  0  0  0
   -1.2160   11.7770  -12.4230 C   0  0  0  0  0  0  0  0  0  0  0  0
   -1.0140   12.4010  -13.2930 H   0  0  0  0  0  0  0  0  0  0  0  0
   -1.7190   12.3690  -11.6580 H   0  0  0  0  0  0  0  0  0  0  0  0
   -0.2780   11.3900  -12.0260 H   0  0  0  0  0  0  0  0  0  0  0  0
   -2.3600    9.6900  -11.6480 C   0  0  0  0  0  0  0  0  0  0  0  0
   -2.8940   10.2400  -10.8730 H   0  0  0  0  0  0  0  0  0  0  0  0
   -2.9540    8.8310  -11.9610 H   0  0  0  0  0  0  0  0  0  0  0  0
   -1.4020    9.3470  -11.2570 H   0  0  0  0  0  0  0  0  0  0  0  0
   10.6540   11.3050   -5.5760 N   0  0  0  0  0  2  0  0  0  0  0  0
   10.3920   12.2850   -5.8030 H   0  0  0  0  0  0  0  0  0  0  0  0
   10.0940   10.6720   -4.3490 C   0  0  2  0  0  0  0  0  0  0  0  0
   10.8680    9.9920   -3.9930 H   0  0  0  0  0  0  0  0  0  0  0  0
    8.8430    9.8410   -4.6350 C   0  0  0  0  0  0  0  0  0  0  0  0
    8.3760    9.1070   -3.7350 O   0  0  0  0  0  0  0  0  0  0  0  0
    9.8210   11.6790   -3.2540 C   0  0  0  0  0  0  0  0  0  0  0  0
   10.7510   12.1790   -2.9810 H   0  0  0  0  0  0  0  0  0  0  0  0
    9.1020   12.4160   -3.6110 H   0  0  0  0  0  0  0  0  0  0  0  0
    9.4140   11.1650   -2.3830 H   0  0  0  0  0  0  0  0  0  0  0  0
    8.3280    9.9240   -5.8760 N   0  0  0  0  0  0  0  0  0  0  0  0
    8.8050   10.5390   -6.5650 H   0  0  0  0  0  0  0  0  0  0  0  0
    7.1420    9.2010   -6.3060 C   0  0  2  0  0  0  0  0  0  0  0  0
    6.4000    9.3360   -5.5190 H   0  0  0  0  0  0  0  0  0  0  0  0
    7.4250    7.7530   -6.4980 C   0  0  0  0  0  0  0  0  0  0  0  0
    8.5700    7.2700   -6.4620 O   0  0  0  0  0  0  0  0  0  0  0  0
    6.6180    9.7450   -7.6390 C   0  0  0  0  0  0  0  0  0  0  0  0
    5.6190    9.3460   -7.8150 H   0  0  0  0  0  0  0  0  0  0  0  0
    7.2840    9.4210   -8.4390 H   0  0  0  0  0  0  0  0  0  0  0  0
    6.5530   11.1910   -7.6390 O   0  0  0  0  0  0  0  0  0  0  0  0
    6.2110   11.5050   -8.5140 H   0  0  0  0  0  0  0  0  0  0  0  0
    6.3550    7.0580   -6.8100 N   0  0  0  0  0  0  0  0  0  0  0  0
    5.4610    7.5640   -6.9720 H   0  0  0  0  0  0  0  0  0  0  0  0
    6.3700    5.6400   -6.9350 C   0  0  2  0  0  0  0  0  0  0  0  0
    7.1620    5.1570   -6.3640 H   0  0  0  0  0  0  0  0  0  0  0  0
    6.5790    5.3360   -8.4090 C   0  0  0  0  0  3  0  0  0  0  0  0
    6.0940    6.0730   -9.2600 O   0  0  0  0  0  0  0  0  0  0  0  0
    5.0220    5.1190   -6.4090 C   0  0  0  0  0  0  0  0  0  0  0  0
    4.2350    5.7010   -6.8870 H   0  0  0  0  0  0  0  0  0  0  0  0
    4.9330    4.0750   -6.7090 H   0  0  0  0  0  0  0  0  0  0  0  0
    4.7900    5.1880   -4.8740 C   0  0  0  0  0  0  0  0  0  0  0  0
    5.0100    6.2120   -4.5710 H   0  0  0  0  0  0  0  0  0  0  0  0
    3.3110    4.7880   -4.5700 C   0  0  0  0  0  0  0  0  0  0  0  0
    2.6380    5.4790   -5.0770 H   0  0  0  0  0  0  0  0  0  0  0  0
    3.1300    3.7740   -4.9260 H   0  0  0  0  0  0  0  0  0  0  0  0
    3.1370    4.8330   -3.4950 H   0  0  0  0  0  0  0  0  0  0  0  0
    5.7270    4.2640   -4.0560 C   0  0  0  0  0  0  0  0  0  0  0  0
    5.5710    3.2290   -4.3610 H   0  0  0  0  0  0  0  0  0  0  0  0
    6.7640    4.5460   -4.2400 H   0  0  0  0  0  0  0  0  0  0  0  0
    5.5030    4.3690   -2.9940 H   0  0  0  0  0  0  0  0  0  0  0  0
    5.3050    3.2970  -10.3550 N   0  0  0  0  0  2  0  0  0  0  0  0
    5.3190    3.2100   -9.3190 H   0  0  0  0  0  0  0  0  0  0  0  0
    4.1120    2.9140  -11.0930 C   0  0  2  0  0  0  0  0  0  0  0  0
    4.3770    2.2010  -11.8730 H   0  0  0  0  0  0  0  0  0  0  0  0
    3.5250    4.1710  -11.7290 C   0  0  0  0  0  0  0  0  0  0  0  0
    2.8290    4.0740  -12.7370 O   0  0  0  0  0  0  0  0  0  0  0  0
    3.0890    2.1810  -10.2000 C   0  0  0  0  0  0  0  0  0  0  0  0
    2.2390    1.8870  -10.8160 H   0  0  0  0  0  0  0  0  0  0  0  0
    3.5630    1.2900   -9.7890 H   0  0  0  0  0  0  0  0  0  0  0  0
    2.5850    3.0260   -9.0590 C   0  0  0  0  0  0  0  0  0  0  0  0
    3.2850    2.9380   -8.2280 H   0  0  0  0  0  0  0  0  0  0  0  0
    2.5440    4.0640   -9.3890 H   0  0  0  0  0  0  0  0  0  0  0  0
    1.2080    2.6210   -8.5730 C   0  0  0  0  0  0  0  0  0  0  0  0
    0.7530    3.4710   -8.0650 H   0  0  0  0  0  0  0  0  0  0  0  0
    0.6000    2.3470   -9.4350 H   0  0  0  0  0  0  0  0  0  0  0  0
    1.2480    1.4500   -7.6160 C   0  0  0  0  0  0  0  0  0  0  0  0
    2.1300    1.5540   -6.9850 H   0  0  0  0  0  0  0  0  0  0  0  0
    1.3270    0.5330   -8.2000 H   0  0  0  0  0  0  0  0  0  0  0  0
    0.0220    1.3380   -6.7120 N   0  0  0  0  0  4  0  0  0  0  0  0
   -0.0630    2.2000   -6.1370 H   0  0  0  0  0  0  0  0  0  0  0  0
   -0.8300    1.2250   -7.2980 H   0  0  0  0  0  0  0  0  0  0  0  0
    0.1270    0.5130   -6.0880 H   0  0  0  0  0  0  0  0  0  0  0  0
    3.8150    5.3320  -11.1570 N   0  0  0  0  0  0  0  0  0  0  0  0
    4.3440    5.3460  -10.2620 H   0  0  0  0  0  0  0  0  0  0  0  0
    3.4060    6.5700  -11.7600 C   0  0  2  0  0  0  0  0  0  0  0  0
    2.6010    6.3500  -12.4610 H   0  0  0  0  0  0  0  0  0  0  0  0
    4.5830    7.2000  -12.5340 C   0  0  0  0  0  3  0  0  0  0  0  0
    4.3900    7.6850  -13.6440 O   0  0  0  0  0  0  0  0  0  0  0  0
    2.8330    7.5740  -10.6990 C   0  0  0  0  0  0  0  0  0  0  0  0
    1.7520    7.4410  -10.6510 H   0  0  0  0  0  0  0  0  0  0  0  0
    3.2710    7.3350   -9.7300 H   0  0  0  0  0  0  0  0  0  0  0  0
    3.1220    9.0400  -11.0060 C   0  0  0  0  0  0  0  0  0  0  0  0
    2.4190    9.6990  -11.9770 C   0  0  0  0  0  0  0  0  0  0  0  0
    1.6340    9.1740  -12.5200 H   0  0  0  0  0  0  0  0  0  0  0  0
    4.1580    9.7400  -10.3510 C   0  0  0  0  0  0  0  0  0  0  0  0
    4.7460    9.2230   -9.5930 H   0  0  0  0  0  0  0  0  0  0  0  0
    2.7000   11.0760  -12.2930 C   0  0  0  0  0  0  0  0  0  0  0  0
    2.1060   11.5870  -13.0510 H   0  0  0  0  0  0  0  0  0  0  0  0
    4.4620   11.1120  -10.6520 C   0  0  0  0  0  0  0  0  0  0  0  0
    5.2550   11.6380  -10.1200 H   0  0  0  0  0  0  0  0  0  0  0  0
    3.7150   11.7570  -11.6450 C   0  0  0  0  0  0  0  0  0  0  0  0
    3.9630   13.0750  -12.0290 O   0  0  0  0  0  0  0  0  0  0  0  0
    3.3260   13.3360  -12.7410 H   0  0  0  0  0  0  0  0  0  0  0  0
   10.9780    6.3050   -4.9480 N   0  0  0  0  0  2  0  0  0  0  0  0
   10.1880    5.9880   -5.5450 H   0  0  0  0  0  0  0  0  0  0  0  0
   10.7200    6.5580   -3.5270 C   0  0  2  0  0  0  0  0  0  0  0  0
   10.9690    7.6020   -3.3390 H   0  0  0  0  0  0  0  0  0  0  0  0
   11.6250    5.7190   -2.6400 C   0  0  0  0  0  3  0  0  0  0  0  0
   12.2670    6.2920   -1.7970 O   0  0  0  0  0  0  0  0  0  0  0  0
    9.2040    6.4100   -3.1540 C   0  0  0  0  0  0  0  0  0  0  0  0
    8.6640    7.2090   -3.6620 H   0  0  0  0  0  0  0  0  0  0  0  0
    8.8680    5.4460   -3.5360 H   0  0  0  0  0  0  0  0  0  0  0  0
    8.8060    6.4750   -1.6050 C   0  0  0  0  0  0  0  0  0  0  0  0
    9.0730    5.5270   -1.1380 H   0  0  0  0  0  0  0  0  0  0  0  0
    9.3690    7.2810   -1.1350 H   0  0  0  0  0  0  0  0  0  0  0  0
    7.2710    6.7340   -1.3710 C   0  0  0  0  0  0  0  0  0  0  0  0
    6.9860    6.4380   -0.3620 H   0  0  0  0  0  0  0  0  0  0  0  0
    6.6770    6.1740   -2.0940 H   0  0  0  0  0  0  0  0  0  0  0  0
    7.0740    8.1750   -1.5550 N   0  0  0  0  0  0  0  0  0  0  0  0
    7.9010    8.7810   -1.3810 H   0  0  0  0  0  0  0  0  0  0  0  0
    5.9530    8.7950   -1.9200 C   0  0  0  0  0  0  0  0  0  0  0  0
    4.8300    8.1290   -2.1550 N   0  0  0  0  0  4  0  0  0  0  0  0
    4.8090    7.0940   -2.0560 H   0  0  0  0  0  0  0  0  0  0  0  0
    3.9710    8.6420   -2.4390 H   0  0  0  0  0  0  0  0  0  0  0  0
    5.9750   10.1110   -2.0680 N   0  0  0  0  0  0  0  0  0  0  0  0
    6.8550   10.6390   -1.9000 H   0  0  0  0  0  0  0  0  0  0  0  0
    5.1120   10.6170   -2.3520 H   0  0  0  0  0  0  0  0  0  0  0  0
   11.6800   13.6970    2.1500 N   0  0  0  0  0  2  0  0  0  0  0  0
   11.0060   14.3750    1.7400 H   0  0  0  0  0  0  0  0  0  0  0  0
   12.3750   12.7460    1.2760 C   0  0  2  0  0  0  0  0  0  0  0  0
   12.5890   11.8420    1.8460 H   0  0  0  0  0  0  0  0  0  0  0  0
   13.6730   13.4000    0.7880 C   0  0  0  0  0  3  0  0  0  0  0  0
   13.6690   14.3550    0.0170 O   0  0  0  0  0  0  0  0  0  0  0  0
   11.5200   12.3200    0.0890 C   0  0  0  0  0  0  0  0  0  0  0  0
   11.3570   13.1990   -0.5350 H   0  0  0  0  0  0  0  0  0  0  0  0
   12.0810   11.5750   -0.4740 H   0  0  0  0  0  0  0  0  0  0  0  0
   10.1640   11.7270    0.4160 C   0  0  0  0  0  0  0  0  0  0  0  0
   10.0310   10.3500    0.7370 C   0  0  0  0  0  0  0  0  0  0  0  0
   10.9170    9.7150    0.7680 H   0  0  0  0  0  0  0  0  0  0  0  0
    9.0060   12.5450    0.3790 C   0  0  0  0  0  0  0  0  0  0  0  0
    9.1020   13.6000    0.1210 H   0  0  0  0  0  0  0  0  0  0  0  0
    8.7740    9.8000    1.0140 C   0  0  0  0  0  0  0  0  0  0  0  0
    8.6750    8.7420    1.2580 H   0  0  0  0  0  0  0  0  0  0  0  0
    7.7410   12.0170    0.6690 C   0  0  0  0  0  0  0  0  0  0  0  0
    6.8570   12.6550    0.6610 H   0  0  0  0  0  0  0  0  0  0  0  0
    7.6340   10.6360    0.9730 C   0  0  0  0  0  0  0  0  0  0  0  0
    6.3730   10.1120    1.2340 O   0  0  0  0  0  0  0  0  0  0  0  0
    6.4530    9.1450    1.4290 H   0  0  0  0  0  0  0  0  0  0  0  0
    6.8140   13.4770   -8.2220 H   0  0  0  0  0  0  0  0  0  0  0  0
   -8.7350    4.5970   -6.3320 H   0  0  0  0  0  0  0  0  0  0  0  0
  1  2  1  0
  1  3  1  0
  3  4  1  6
  3  5  1  0
  3  7  1  0
  5  6  2  0
  7  8  1  0
  7  9  1  0
  7 10  1  0
 10 11  2  0
 10 12  1  0
 12250  1  0
 13 14  1  0
 13 15  1  0
 15 16  1  6
 15 17  1  0
 15 19  1  0
 17 18  2  0
 17 24  1  0
 19 20  1  0
 19 21  1  0
 19 22  1  0
 22 23  1  0
 24 25  1  0
 24 26  1  0
 26 27  1  1
 26 28  1  0
 26 30  1  0
 28 29  2  0
 28 35  1  0
 30 31  1  0
 30 32  1  0
 30 33  1  0
 33 34  1  0
 35 36  1  0
 35 37  1  0
 37 38  1  6
 37 39  1  0
 37 41  1  0
 39 40  2  0
 41 42  1  0
 41 43  1  0
 41 44  1  0
 44 45  2  0
 44 47  1  0
 45 46  1  0
 45 49  1  0
 47 48  1  0
 47 51  2  0
 49 50  1  0
 49 53  2  0
 51 52  1  0
 51 53  1  0
 53 54  1  0
 55 56  1  0
 55 57  1  0
 57 58  1  6
 57 59  1  0
 57 61  1  0
 59 60  2  0
 61 62  1  0
 61 63  1  0
 61 67  1  0
 63 64  1  0
 63 65  1  0
 63 66  1  0
 67 68  1  0
 67 69  1  0
 67 70  1  0
 71 72  1  0
 71 73  1  0
 73 74  1  1
 73 75  1  0
 73 77  1  0
 75 76  2  0
 77 78  1  6
 77 79  1  0
 77 82  1  0
 79 80  1  0
 79 81  1  0
 79 86  1  0
 82 83  1  0
 82 84  1  0
 82 85  1  0
 86 87  1  0
 86 88  1  0
 86 89  1  0
 90 91  1  0
 90 92  1  0
 92 93  1  6
 92 94  1  0
 92 96  1  0
 94 95  2  0
 96 97  1  0
 96 98  1  0
 96 99  1  0
 99100  1  0
 99101  2  0
100103  2  0
101102  1  0
101105  1  0
103104  1  0
103105  1  0
105251  1  0
106107  1  0
106108  1  0
108109  1  1
108110  1  0
108112  1  0
110111  2  0
112113  1  0
112114  1  0
112118  1  0
114115  1  0
114116  1  0
114117  1  0
118119  1  0
118120  1  0
118121  1  0
122123  1  0
122124  1  0
124125  1  1
124126  1  0
124128  1  0
126127  2  0
126132  1  0
128129  1  0
128130  1  0
128131  1  0
132133  1  0
132134  1  0
134135  1  1
134136  1  0
134138  1  0
136137  2  0
136143  1  0
138139  1  0
138140  1  0
138141  1  0
141142  1  0
143144  1  0
143145  1  0
145146  1  1
145147  1  0
145149  1  0
147148  2  0
149150  1  0
149151  1  0
149152  1  0
152153  1  0
152154  1  0
152158  1  0
154155  1  0
154156  1  0
154157  1  0
158159  1  0
158160  1  0
158161  1  0
162163  1  0
162164  1  0
164165  1  6
164166  1  0
164168  1  0
166167  2  0
166184  1  0
168169  1  0
168170  1  0
168171  1  0
171172  1  0
171173  1  0
171174  1  0
174175  1  0
174176  1  0
174177  1  0
177178  1  0
177179  1  0
177180  1  0
180181  1  0
180182  1  0
180183  1  0
184185  1  0
184186  1  0
186187  1  6
186188  1  0
186190  1  0
188189  2  0
190191  1  0
190192  1  0
190193  1  0
193194  2  0
193196  1  0
194195  1  0
194198  1  0
196197  1  0
196200  2  0
198199  1  0
198202  2  0
200201  1  0
200202  1  0
202203  1  0
203204  1  0
205206  1  0
205207  1  0
207208  1  6
207209  1  0
207211  1  0
209210  2  0
211212  1  0
211213  1  0
211214  1  0
214215  1  0
214216  1  0
214217  1  0
217218  1  0
217219  1  0
217220  1  0
220221  1  0
220222  1  0
222223  2  0
222226  1  0
223224  1  0
223225  1  0
226227  1  0
226228  1  0
229230  1  0
229231  1  0
231232  1  1
231233  1  0
231235  1  0
233234  2  0
235236  1  0
235237  1  0
235238  1  0
238239  2  0
238241  1  0
239240  1  0
239243  1  0
241242  1  0
241245  2  0
243244  1  0
243247  2  0
245246  1  0
245247  1  0
247248  1  0
248249  1  0
M  RAD  8   1   2   5   2  13   2  39   2  55   2  59   2  71   2  75   2
M  RAD  8  90   2  94   2 106   2 110   2 122   2 147   2 162   2 188   2
M  CHG  2 180   1 223   1
M  RAD  4 205   2 209   2 229   2 233   2
M  END
$$$$

     RDKit          3D

251245  0  0  0  0  0  0  0  0999 V2000
    8.2390   15.7430  -10.2460 N   0  0  0  0  0  2  0  0  0  0  0  0
    8.4060   14.8450   -9.7480 H   0  0  0  0  0  0  0  0  0  0  0  0
    7.1270   16.5820   -9.8330 C   0  0  2  0  0  0  0  0  0  0  0  0
    6.5240   16.7530  -10.7240 H   0  0  0  0  0  0  0  0  0  0  0  0
    7.5010   17.9630   -9.3590 C   0  0  0  0  0  3  0  0  0  0  0  0
    8.3130   18.1090   -8.4540 O   0  0  0  0  0  0  0  0  0  0  0  0
    6.3630   15.8620   -8.7680 C   0  0  0  0  0  0  0  0  0  0  0  0
    7.0440   15.5910   -7.9610 H   0  0  0  0  0  0  0  0  0  0  0  0
    5.5850   16.5200   -8.3800 H   0  0  0  0  0  0  0  0  0  0  0  0
    5.7360   14.6350   -9.3040 C   0  0  0  0  0  0  0  0  0  0  0  0
    4.8520   14.7920  -10.1880 O   0  0  0  0  0  0  0  0  0  0  0  0
    6.1520   13.5130   -8.8840 O   0  0  0  0  0  0  0  0  0  0  0  0
    1.6580   16.8130  -11.9920 N   0  0  0  0  0  2  0  0  0  0  0  0
    2.3630   16.6600  -11.2430 H   0  0  0  0  0  0  0  0  0  0  0  0
    0.5750   15.8710  -12.1280 C   0  0  2  0  0  0  0  0  0  0  0  0
    0.1290   15.9910  -13.1150 H   0  0  0  0  0  0  0  0  0  0  0  0
   -0.5220   16.1130  -11.1130 C   0  0  0  0  0  0  0  0  0  0  0  0
   -0.2990   16.7340  -10.0760 O   0  0  0  0  0  0  0  0  0  0  0  0
    1.1300   14.4960  -11.9520 C   0  0  0  0  0  0  0  0  0  0  0  0
    0.3140   13.7740  -11.9180 H   0  0  0  0  0  0  0  0  0  0  0  0
    1.6970   14.4460  -11.0220 H   0  0  0  0  0  0  0  0  0  0  0  0
    1.9940   14.1960  -13.0610 O   0  0  0  0  0  0  0  0  0  0  0  0
    2.3660   13.2850  -12.9510 H   0  0  0  0  0  0  0  0  0  0  0  0
   -1.7070   15.5990  -11.3820 N   0  0  0  0  0  0  0  0  0  0  0  0
   -1.8300   15.0390  -12.2500 H   0  0  0  0  0  0  0  0  0  0  0  0
   -2.8500   15.7940  -10.4960 C   0  0  2  0  0  0  0  0  0  0  0  0
   -2.4940   15.6940   -9.4710 H   0  0  0  0  0  0  0  0  0  0  0  0
   -3.9360   14.7420  -10.7100 C   0  0  0  0  0  0  0  0  0  0  0  0
   -4.1170   14.2150  -11.8220 O   0  0  0  0  0  0  0  0  0  0  0  0
   -3.4310   17.1680  -10.7260 C   0  0  0  0  0  0  0  0  0  0  0  0
   -3.6970   17.2780  -11.7770 H   0  0  0  0  0  0  0  0  0  0  0  0
   -2.6920   17.9230  -10.4590 H   0  0  0  0  0  0  0  0  0  0  0  0
   -4.5930   17.3400   -9.9250 O   0  0  0  0  0  0  0  0  0  0  0  0
   -4.9690   18.2430  -10.0800 H   0  0  0  0  0  0  0  0  0  0  0  0
   -4.6520   14.4140   -9.6350 N   0  0  0  0  0  0  0  0  0  0  0  0
   -4.3590   14.7920   -8.7110 H   0  0  0  0  0  0  0  0  0  0  0  0
   -5.8320   13.5460   -9.6910 C   0  0  2  0  0  0  0  0  0  0  0  0
   -5.6450   12.7780  -10.4420 H   0  0  0  0  0  0  0  0  0  0  0  0
   -7.0770   14.3290  -10.1220 C   0  0  0  0  0  3  0  0  0  0  0  0
   -8.0250   13.7390  -10.5890 O   0  0  0  0  0  0  0  0  0  0  0  0
   -6.0610   12.8570   -8.3570 C   0  0  0  0  0  0  0  0  0  0  0  0
   -5.9730   13.6020   -7.5670 H   0  0  0  0  0  0  0  0  0  0  0  0
   -7.0700   12.4440   -8.3540 H   0  0  0  0  0  0  0  0  0  0  0  0
   -5.0730   11.7210   -8.0610 C   0  0  0  0  0  0  0  0  0  0  0  0
   -4.0720   11.8810   -7.1020 C   0  0  0  0  0  0  0  0  0  0  0  0
   -3.9860   12.8270   -6.5670 H   0  0  0  0  0  0  0  0  0  0  0  0
   -5.1740   10.4980   -8.7080 C   0  0  0  0  0  0  0  0  0  0  0  0
   -5.9560   10.3530   -9.4530 H   0  0  0  0  0  0  0  0  0  0  0  0
   -3.1820   10.8480   -6.8190 C   0  0  0  0  0  0  0  0  0  0  0  0
   -2.4060   10.9870   -6.0660 H   0  0  0  0  0  0  0  0  0  0  0  0
   -4.2920    9.4420   -8.4250 C   0  0  0  0  0  0  0  0  0  0  0  0
   -4.4060    8.4830   -8.9310 H   0  0  0  0  0  0  0  0  0  0  0  0
   -3.2860    9.6220   -7.5080 C   0  0  0  0  0  0  0  0  0  0  0  0
   -2.5720    8.8220   -7.3140 H   0  0  0  0  0  0  0  0  0  0  0  0
   -3.3140    5.0230  -13.0570 N   0  0  0  0  0  2  0  0  0  0  0  0
   -4.1400    5.6150  -12.8370 H   0  0  0  0  0  0  0  0  0  0  0  0
   -2.5170    4.4610  -11.9940 C   0  0  2  0  0  0  0  0  0  0  0  0
   -1.7250    3.8470  -12.4230 H   0  0  0  0  0  0  0  0  0  0  0  0
   -3.4380    3.6400  -11.1070 C   0  0  0  0  0  3  0  0  0  0  0  0
   -4.4710    4.1900  -10.6370 O   0  0  0  0  0  0  0  0  0  0  0  0
   -1.8540    5.5840  -11.1350 C   0  0  0  0  0  0  0  0  0  0  0  0
   -2.6490    6.2450  -10.7900 H   0  0  0  0  0  0  0  0  0  0  0  0
   -1.1450    4.9970   -9.9330 C   0  0  0  0  0  0  0  0  0  0  0  0
   -1.8650    4.4610   -9.3150 H   0  0  0  0  0  0  0  0  0  0  0  0
   -0.3700    4.3090  -10.2700 H   0  0  0  0  0  0  0  0  0  0  0  0
   -0.6920    5.8000   -9.3520 H   0  0  0  0  0  0  0  0  0  0  0  0
   -0.8790    6.3820  -11.9530 C   0  0  0  0  0  0  0  0  0  0  0  0
   -0.0980    5.7220  -12.3300 H   0  0  0  0  0  0  0  0  0  0  0  0
   -1.4020    6.8440  -12.7900 H   0  0  0  0  0  0  0  0  0  0  0  0
   -0.4320    7.1570  -11.3300 H   0  0  0  0  0  0  0  0  0  0  0  0
   -4.5210    2.0210   -7.7850 N   0  0  0  0  0  2  0  0  0  0  0  0
   -5.4600    2.1270   -8.2190 H   0  0  0  0  0  0  0  0  0  0  0  0
   -4.3760    2.2860   -6.3400 C   0  0  2  0  0  0  0  0  0  0  0  0
   -3.3700    1.9630   -6.0710 H   0  0  0  0  0  0  0  0  0  0  0  0
   -5.3740    1.4700   -5.5200 C   0  0  0  0  0  3  0  0  0  0  0  0
   -6.6090    1.7400   -5.5300 O   0  0  0  0  0  0  0  0  0  0  0  0
   -4.4620    3.8040   -5.9870 C   0  0  2  0  0  0  0  0  0  0  0  0
   -5.4400    4.1780   -6.2900 H   0  0  0  0  0  0  0  0  0  0  0  0
   -3.3750    4.5860   -6.7450 C   0  0  0  0  0  0  0  0  0  0  0  0
   -2.4260    4.4330   -6.2310 H   0  0  0  0  0  0  0  0  0  0  0  0
   -3.3090    4.1820   -7.7550 H   0  0  0  0  0  0  0  0  0  0  0  0
   -4.3050    4.0130   -4.4580 C   0  0  0  0  0  0  0  0  0  0  0  0
   -5.1000    3.4810   -3.9360 H   0  0  0  0  0  0  0  0  0  0  0  0
   -3.3370    3.6280   -4.1370 H   0  0  0  0  0  0  0  0  0  0  0  0
   -4.3670    5.0770   -4.2300 H   0  0  0  0  0  0  0  0  0  0  0  0
   -3.6210    6.0930   -6.8510 C   0  0  0  0  0  0  0  0  0  0  0  0
   -4.5590    6.2710   -7.3760 H   0  0  0  0  0  0  0  0  0  0  0  0
   -3.6760    6.5220   -5.8510 H   0  0  0  0  0  0  0  0  0  0  0  0
   -2.8020    6.5560   -7.4010 H   0  0  0  0  0  0  0  0  0  0  0  0
   -7.1030    4.9550  -11.2140 N   0  0  0  0  0  2  0  0  0  0  0  0
   -6.1220    4.6450  -11.0650 H   0  0  0  0  0  0  0  0  0  0  0  0
   -7.3690    6.3930  -11.2260 C   0  0  2  0  0  0  0  0  0  0  0  0
   -8.4260    6.5500  -11.4390 H   0  0  0  0  0  0  0  0  0  0  0  0
   -6.5510    7.1110  -12.3230 C   0  0  0  0  0  3  0  0  0  0  0  0
   -5.3670    6.8340  -12.4820 O   0  0  0  0  0  0  0  0  0  0  0  0
   -6.9990    6.9690   -9.8590 C   0  0  0  0  0  0  0  0  0  0  0  0
   -5.9460    6.7590   -9.6690 H   0  0  0  0  0  0  0  0  0  0  0  0
   -7.1550    8.0480   -9.8840 H   0  0  0  0  0  0  0  0  0  0  0  0
   -7.8100    6.3970   -8.7320 C   0  0  0  0  0  0  0  0  0  0  0  0
   -9.1120    6.7880   -8.4820 N   0  0  0  0  0  0  0  0  0  0  0  0
   -7.5200    5.4300   -7.8250 C   0  0  0  0  0  0  0  0  0  0  0  0
   -6.5730    4.9000   -7.7210 H   0  0  0  0  0  0  0  0  0  0  0  0
   -9.5840    6.0790   -7.4730 C   0  0  0  0  0  0  0  0  0  0  0  0
  -10.5840    6.1660   -7.0470 H   0  0  0  0  0  0  0  0  0  0  0  0
   -8.6430    5.2470   -7.0660 N   0  0  0  0  0  0  0  0  0  0  0  0
   -4.3430    9.9870  -13.8600 N   0  0  0  0  0  2  0  0  0  0  0  0
   -3.9430    9.2670  -14.4950 H   0  0  0  0  0  0  0  0  0  0  0  0
   -3.4660   11.0950  -13.4060 C   0  0  2  0  0  0  0  0  0  0  0  0
   -3.9980   11.6020  -12.6010 H   0  0  0  0  0  0  0  0  0  0  0  0
   -3.1980   12.0700  -14.5610 C   0  0  0  0  0  3  0  0  0  0  0  0
   -2.6940   11.6660  -15.6100 O   0  0  0  0  0  0  0  0  0  0  0  0
   -2.1230   10.5980  -12.8370 C   0  0  0  0  0  0  0  0  0  0  0  0
   -1.6160   10.0380  -13.6230 H   0  0  0  0  0  0  0  0  0  0  0  0
   -1.2160   11.7770  -12.4230 C   0  0  0  0  0  0  0  0  0  0  0  0
   -1.0140   12.4010  -13.2930 H   0  0  0  0  0  0  0  0  0  0  0  0
   -1.7190   12.3690  -11.6580 H   0  0  0  0  0  0  0  0  0  0  0  0
   -0.2780   11.3900  -12.0260 H   0  0  0  0  0  0  0  0  0  0  0  0
   -2.3600    9.6900  -11.6480 C   0  0  0  0  0  0  0  0  0  0  0  0
   -2.8940   10.2400  -10.8730 H   0  0  0  0  0  0  0  0  0  0  0  0
   -2.9540    8.8310  -11.9610 H   0  0  0  0  0  0  0  0  0  0  0  0
   -1.4020    9.3470  -11.2570 H   0  0  0  0  0  0  0  0  0  0  0  0
   10.6540   11.3050   -5.5760 N   0  0  0  0  0  2  0  0  0  0  0  0
   10.3920   12.2850   -5.8030 H   0  0  0  0  0  0  0  0  0  0  0  0
   10.0940   10.6720   -4.3490 C   0  0  2  0  0  0  0  0  0  0  0  0
   10.8680    9.9920   -3.9930 H   0  0  0  0  0  0  0  0  0  0  0  0
    8.8430    9.8410   -4.6350 C   0  0  0  0  0  0  0  0  0  0  0  0
    8.3760    9.1070   -3.7350 O   0  0  0  0  0  0  0  0  0  0  0  0
    9.8210   11.6790   -3.2540 C   0  0  0  0  0  0  0  0  0  0  0  0
   10.7510   12.1790   -2.9810 H   0  0  0  0  0  0  0  0  0  0  0  0
    9.1020   12.4160   -3.6110 H   0  0  0  0  0  0  0  0  0  0  0  0
    9.4140   11.1650   -2.3830 H   0  0  0  0  0  0  0  0  0  0  0  0
    8.3280    9.9240   -5.8760 N   0  0  0  0  0  0  0  0  0  0  0  0
    8.8050   10.5390   -6.5650 H   0  0  0  0  0  0  0  0  0  0  0  0
    7.1420    9.2010   -6.3060 C   0  0  2  0  0  0  0  0  0  0  0  0
    6.4000    9.3360   -5.5190 H   0  0  0  0  0  0  0  0  0  0  0  0
    7.4250    7.7530   -6.4980 C   0  0  0  0  0  0  0  0  0  0  0  0
    8.5700    7.2700   -6.4620 O   0  0  0  0  0  0  0  0  0  0  0  0
    6.6180    9.7450   -7.6390 C   0  0  0  0  0  0  0  0  0  0  0  0
    5.6190    9.3460   -7.8150 H   0  0  0  0  0  0  0  0  0  0  0  0
    7.2840    9.4210   -8.4390 H   0  0  0  0  0  0  0  0  0  0  0  0
    6.5530   11.1910   -7.6390 O   0  0  0  0  0  0  0  0  0  0  0  0
    6.2110   11.5050   -8.5140 H   0  0  0  0  0  0  0  0  0  0  0  0
    6.3550    7.0580   -6.8100 N   0  0  0  0  0  0  0  0  0  0  0  0
    5.4610    7.5640   -6.9720 H   0  0  0  0  0  0  0  0  0  0  0  0
    6.3700    5.6400   -6.9350 C   0  0  2  0  0  0  0  0  0  0  0  0
    7.1620    5.1570   -6.3640 H   0  0  0  0  0  0  0  0  0  0  0  0
    6.5790    5.3360   -8.4090 C   0  0  0  0  0  3  0  0  0  0  0  0
    6.0940    6.0730   -9.2600 O   0  0  0  0  0  0  0  0  0  0  0  0
    5.0220    5.1190   -6.4090 C   0  0  0  0  0  0  0  0  0  0  0  0
    4.2350    5.7010   -6.8870 H   0  0  0  0  0  0  0  0  0  0  0  0
    4.9330    4.0750   -6.7090 H   0  0  0  0  0  0  0  0  0  0  0  0
    4.7900    5.1880   -4.8740 C   0  0  0  0  0  0  0  0  0  0  0  0
    5.0100    6.2120   -4.5710 H   0  0  0  0  0  0  0  0  0  0  0  0
    3.3110    4.7880   -4.5700 C   0  0  0  0  0  0  0  0  0  0  0  0
    2.6380    5.4790   -5.0770 H   0  0  0  0  0  0  0  0  0  0  0  0
    3.1300    3.7740   -4.9260 H   0  0  0  0  0  0  0  0  0  0  0  0
    3.1370    4.8330   -3.4950 H   0  0  0  0  0  0  0  0  0  0  0  0
    5.7270    4.2640   -4.0560 C   0  0  0  0  0  0  0  0  0  0  0  0
    5.5710    3.2290   -4.3610 H   0  0  0  0  0  0  0  0  0  0  0  0
    6.7640    4.5460   -4.2400 H   0  0  0  0  0  0  0  0  0  0  0  0
    5.5030    4.3690   -2.9940 H   0  0  0  0  0  0  0  0  0  0  0  0
    5.3050    3.2970  -10.3550 N   0  0  0  0  0  2  0  0  0  0  0  0
    5.3190    3.2100   -9.3190 H   0  0  0  0  0  0  0  0  0  0  0  0
    4.1120    2.9140  -11.0930 C   0  0  2  0  0  0  0  0  0  0  0  0
    4.3770    2.2010  -11.8730 H   0  0  0  0  0  0  0  0  0  0  0  0
    3.5250    4.1710  -11.7290 C   0  0  0  0  0  0  0  0  0  0  0  0
    2.8290    4.0740  -12.7370 O   0  0  0  0  0  0  0  0  0  0  0  0
    3.0890    2.1810  -10.2000 C   0  0  0  0  0  0  0  0  0  0  0  0
    2.2390    1.8870  -10.8160 H   0  0  0  0  0  0  0  0  0  0  0  0
    3.5630    1.2900   -9.7890 H   0  0  0  0  0  0  0  0  0  0  0  0
    2.5850    3.0260   -9.0590 C   0  0  0  0  0  0  0  0  0  0  0  0
    3.2850    2.9380   -8.2280 H   0  0  0  0  0  0  0  0  0  0  0  0
    2.5440    4.0640   -9.3890 H   0  0  0  0  0  0  0  0  0  0  0  0
    1.2080    2.6210   -8.5730 C   0  0  0  0  0  0  0  0  0  0  0  0
    0.7530    3.4710   -8.0650 H   0  0  0  0  0  0  0  0  0  0  0  0
    0.6000    2.3470   -9.4350 H   0  0  0  0  0  0  0  0  0  0  0  0
    1.2480    1.4500   -7.6160 C   0  0  0  0  0  0  0  0  0  0  0  0
    2.1300    1.5540   -6.9850 H   0  0  0  0  0  0  0  0  0  0  0  0
    1.3270    0.5330   -8.2000 H   0  0  0  0  0  0  0  0  0  0  0  0
    0.0220    1.3380   -6.7120 N   0  0  0  0  0  4  0  0  0  0  0  0
   -0.0630    2.2000   -6.1370 H   0  0  0  0  0  0  0  0  0  0  0  0
   -0.8300    1.2250   -7.2980 H   0  0  0  0  0  0  0  0  0  0  0  0
    0.1270    0.5130   -6.0880 H   0  0  0  0  0  0  0  0  0  0  0  0
    3.8150    5.3320  -11.1570 N   0  0  0  0  0  0  0  0  0  0  0  0
    4.3440    5.3460  -10.2620 H   0  0  0  0  0  0  0  0  0  0  0  0
    3.4060    6.5700  -11.7600 C   0  0  2  0  0  0  0  0  0  0  0  0
    2.6010    6.3500  -12.4610 H   0  0  0  0  0  0  0  0  0  0  0  0
    4.5830    7.2000  -12.5340 C   0  0  0  0  0  3  0  0  0  0  0  0
    4.3900    7.6850  -13.6440 O   0  0  0  0  0  0  0  0  0  0  0  0
    2.8330    7.5740  -10.6990 C   0  0  0  0  0  0  0  0  0  0  0  0
    1.7520    7.4410  -10.6510 H   0  0  0  0  0  0  0  0  0  0  0  0
    3.2710    7.3350   -9.7300 H   0  0  0  0  0  0  0  0  0  0  0  0
    3.1220    9.0400  -11.0060 C   0  0  0  0  0  0  0  0  0  0  0  0
    2.4190    9.6990  -11.9770 C   0  0  0  0  0  0  0  0  0  0  0  0
    1.6340    9.1740  -12.5200 H   0  0  0  0  0  0  0  0  0  0  0  0
    4.1580    9.7400  -10.3510 C   0  0  0  0  0  0  0  0  0  0  0  0
    4.7460    9.2230   -9.5930 H   0  0  0  0  0  0  0  0  0  0  0  0
    2.7000   11.0760  -12.2930 C   0  0  0  0  0  0  0  0  0  0  0  0
    2.1060   11.5870  -13.0510 H   0  0  0  0  0  0  0  0  0  0  0  0
    4.4620   11.1120  -10.6520 C   0  0  0  0  0  0  0  0  0  0  0  0
    5.2550   11.6380  -10.1200 H   0  0  0  0  0  0  0  0  0  0  0  0
    3.7150   11.7570  -11.6450 C   0  0  0  0  0  0  0  0  0  0  0  0
    3.9630   13.0750  -12.0290 O   0  0  0  0  0  0  0  0  0  0  0  0
    3.3260   13.3360  -12.7410 H   0  0  0  0  0  0  0  0  0  0  0  0
   10.9780    6.3050   -4.9480 N   0  0  0  0  0  2  0  0  0  0  0  0
   10.1880    5.9880   -5.5450 H   0  0  0  0  0  0  0  0  0  0  0  0
   10.7200    6.5580   -3.5270 C   0  0  2  0  0  0  0  0  0  0  0  0
   10.9690    7.6020   -3.3390 H   0  0  0  0  0  0  0  0  0  0  0  0
   11.6250    5.7190   -2.6400 C   0  0  0  0  0  3  0  0  0  0  0  0
   12.2670    6.2920   -1.7970 O   0  0  0  0  0  0  0  0  0  0  0  0
    9.2040    6.4100   -3.1540 C   0  0  0  0  0  0  0  0  0  0  0  0
    8.6640    7.2090   -3.6620 H   0  0  0  0  0  0  0  0  0  0  0  0
    8.8680    5.4460   -3.5360 H   0  0  0  0  0  0  0  0  0  0  0  0
    8.8060    6.4750   -1.6050 C   0  0  0  0  0  0  0  0  0  0  0  0
    9.0730    5.5270   -1.1380 H   0  0  0  0  0  0  0  0  0  0  0  0
    9.3690    7.2810   -1.1350 H   0  0  0  0  0  0  0  0  0  0  0  0
    7.2710    6.7340   -1.3710 C   0  0  0  0  0  0  0  0  0  0  0  0
    6.9860    6.4380   -0.3620 H   0  0  0  0  0  0  0  0  0  0  0  0
    6.6770    6.1740   -2.0940 H   0  0  0  0  0  0  0  0  0  0  0  0
    7.0740    8.1750   -1.5550 N   0  0  0  0  0  0  0  0  0  0  0  0
    7.9010    8.7810   -1.3810 H   0  0  0  0  0  0  0  0  0  0  0  0
    5.9530    8.7950   -1.9200 C   0  0  0  0  0  0  0  0  0  0  0  0
    4.8300    8.1290   -2.1550 N   0  0  0  0  0  4  0  0  0  0  0  0
    4.8090    7.0940   -2.0560 H   0  0  0  0  0  0  0  0  0  0  0  0
    3.9710    8.6420   -2.4390 H   0  0  0  0  0  0  0  0  0  0  0  0
    5.9750   10.1110   -2.0680 N   0  0  0  0  0  0  0  0  0  0  0  0
    6.8550   10.6390   -1.9000 H   0  0  0  0  0  0  0  0  0  0  0  0
    5.1120   10.6170   -2.3520 H   0  0  0  0  0  0  0  0  0  0  0  0
   11.6800   13.6970    2.1500 N   0  0  0  0  0  2  0  0  0  0  0  0
   11.0060   14.3750    1.7400 H   0  0  0  0  0  0  0  0  0  0  0  0
   12.3750   12.7460    1.2760 C   0  0  2  0  0  0  0  0  0  0  0  0
   12.5890   11.8420    1.8460 H   0  0  0  0  0  0  0  0  0  0  0  0
   13.6730   13.4000    0.7880 C   0  0  0  0  0  3  0  0  0  0  0  0
   13.6690   14.3550    0.0170 O   0  0  0  0  0  0  0  0  0  0  0  0
   11.5200   12.3200    0.0890 C   0  0  0  0  0  0  0  0  0  0  0  0
   11.3570   13.1990   -0.5350 H   0  0  0  0  0  0  0  0  0  0  0  0
   12.0810   11.5750   -0.4740 H   0  0  0  0  0  0  0  0  0  0  0  0
   10.1640   11.7270    0.4160 C   0  0  0  0  0  0  0  0  0  0  0  0
   10.0310   10.3500    0.7370 C   0  0  0  0  0  0  0  0  0  0  0  0
   10.9170    9.7150    0.7680 H   0  0  0  0  0  0  0  0  0  0  0  0
    9.0060   12.5450    0.3790 C   0  0  0  0  0  0  0  0  0  0  0  0
    9.1020   13.6000    0.1210 H   0  0  0  0  0  0  0  0  0  0  0  0
    8.7740    9.8000    1.0140 C   0  0  0  0  0  0  0  0  0  0  0  0
    8.6750    8.7420    1.2580 H   0  0  0  0  0  0  0  0  0  0  0  0
    7.7410   12.0170    0.6690 C   0  0  0  0  0  0  0  0  0  0  0  0
    6.8570   12.6550    0.6610 H   0  0  0  0  0  0  0  0  0  0  0  0
    7.6340   10.6360    0.9730 C   0  0  0  0  0  0  0  0  0  0  0  0
    6.3730   10.1120    1.2340 O   0  0  0  0  0  0  0  0  0  0  0  0
    6.4530    9.1450    1.4290 H   0  0  0  0  0  0  0  0  0  0  0  0
    6.8140   13.4770   -8.2220 H   0  0  0  0  0  0  0  0  0  0  0  0
   -8.7350    4.5970   -6.3320 H   0  0  0  0  0  0  0  0  0  0  0  0
  1  2  1  0
  1  3  1  0
  3  4  1  6
  3  5  1  0
  3  7  1  0
  5  6  2  0
  7  8  1  0
  7  9  1  0
  7 10  1  0
 10 11  2  0
 10 12  1  0
 12250  1  0
 13 14  1  0
 13 15  1  0
 15 16  1  6
 15 17  1  0
 15 19  1  0
 17 18  2  0
 17 24  1  0
 19 20  1  0
 19 21  1  0
 19 22  1  0
 22 23  1  0
 24 25  1  0
 24 26  1  0
 26 27  1  1
 26 28  1  0
 26 30  1  0
 28 29  2  0
 28 35  1  0
 30 31  1  0
 30 32  1  0
 30 33  1  0
 33 34  1  0
 35 36  1  0
 35 37  1  0
 37 38  1  6
 37 39  1  0
 37 41  1  0
 39 40  2  0
 41 42  1  0
 41 43  1  0
 41 44  1  0
 44 45  2  0
 44 47  1  0
 45 46  1  0
 45 49  1  0
 47 48  1  0
 47 51  2  0
 49 50  1  0
 49 53  2  0
 51 52  1  0
 51 53  1  0
 53 54  1  0
 55 56  1  0
 55 57  1  0
 57 58  1  6
 57 59  1  0
 57 61  1  0
 59 60  2  0
 61 62  1  0
 61 63  1  0
 61 67  1  0
 63 64  1  0
 63 65  1  0
 63 66  1  0
 67 68  1  0
 67 69  1  0
 67 70  1  0
 71 72  1  0
 71 73  1  0
 73 74  1  1
 73 75  1  0
 73 77  1  0
 75 76  2  0
 77 78  1  6
 77 79  1  0
 77 82  1  0
 79 80  1  0
 79 81  1  0
 79 86  1  0
 82 83  1  0
 82 84  1  0
 82 85  1  0
 86 87  1  0
 86 88  1  0
 86 89  1  0
 90 91  1  0
 90 92  1  0
 92 93  1  6
 92 94  1  0
 92 96  1  0
 94 95  2  0
 96 97  1  0
 96 98  1  0
 96 99  1  0
 99100  1  0
 99101  2  0
100103  2  0
101102  1  0
101105  1  0
103104  1  0
103105  1  0
105251  1  0
106107  1  0
106108  1  0
108109  1  1
108110  1  0
108112  1  0
110111  2  0
112113  1  0
112114  1  0
112118  1  0
114115  1  0
114116  1  0
114117  1  0
118119  1  0
118120  1  0
118121  1  0
122123  1  0
122124  1  0
124125  1  1
124126  1  0
124128  1  0
126127  2  0
126132  1  0
128129  1  0
128130  1  0
128131  1  0
132133  1  0
132134  1  0
134135  1  1
134136  1  0
134138  1  0
136137  2  0
136143  1  0
138139  1  0
138140  1  0
138141  1  0
141142  1  0
143144  1  0
143145  1  0
145146  1  1
145147  1  0
145149  1  0
147148  2  0
149150  1  0
149151  1  0
149152  1  0
152153  1  0
152154  1  0
152158  1  0
154155  1  0
154156  1  0
154157  1  0
158159  1  0
158160  1  0
158161  1  0
162163  1  0
162164  1  0
164165  1  6
164166  1  0
164168  1  0
166167  2  0
166184  1  0
168169  1  0
168170  1  0
168171  1  0
171172  1  0
171173  1  0
171174  1  0
174175  1  0
174176  1  0
174177  1  0
177178  1  0
177179  1  0
177180  1  0
180181  1  0
180182  1  0
180183  1  0
184185  1  0
184186  1  0
186187  1  6
186188  1  0
186190  1  0
188189  2  0
190191  1  0
190192  1  0
190193  1  0
193194  2  0
193196  1  0
194195  1  0
194198  1  0
196197  1  0
196200  2  0
198199  1  0
198202  2  0
200201  1  0
200202  1  0
202203  1  0
203204  1  0
205206  1  0
205207  1  0
207208  1  6
207209  1  0
207211  1  0
209210  2  0
211212  1  0
211213  1  0
211214  1  0
214215  1  0
214216  1  0
214217  1  0
217218  1  0
217219  1  0
217220  1  0
220221  1  0
220222  1  0
222223  2  0
222226  1  0
223224  1  0
223225  1  0
226227  1  0
226228  1  0
229230  1  0
229231  1  0
231232  1  1
231233  1  0
231235  1  0
233234  2  0
235236  1  0
235237  1  0
235238  1  0
238239  2  0
238241  1  0
239240  1  0
239243  1  0
241242  1  0
241245  2  0
243244  1  0
243247  2  0
245246  1  0
245247  1  0
247248  1  0
248249  1  0
M  RAD  8   1   2   5   2  13   2  39   2  55   2  59   2  71   2  75   2
M  RAD  8  90   2  94   2 106   2 110   2 122   2 147   2 162   2 188   2
M  CHG  2 180   1 223   1
M  RAD  4 205   2 209   2 229   2 233   2
M  END
$$$$

     RDKit          3D

251245  0  0  0  0  0  0  0  0999 V2000
    8.2390   15.7430  -10.2460 N   0  0  0  0  0  2  0  0  0  0  0  0
    8.4060   14.8450   -9.7480 H   0  0  0  0  0  0  0  0  0  0  0  0
    7.1270   16.5820   -9.8330 C   0  0  2  0  0  0  0  0  0  0  0  0
    6.5240   16.7530  -10.7240 H   0  0  0  0  0  0  0  0  0  0  0  0
    7.5010   17.9630   -9.3590 C   0  0  0  0  0  3  0  0  0  0  0  0
    8.3130   18.1090   -8.4540 O   0  0  0  0  0  0  0  0  0  0  0  0
    6.3630   15.8620   -8.7680 C   0  0  0  0  0  0  0  0  0  0  0  0
    7.0440   15.5910   -7.9610 H   0  0  0  0  0  0  0  0  0  0  0  0
    5.5850   16.5200   -8.3800 H   0  0  0  0  0  0  0  0  0  0  0  0
    5.7360   14.6350   -9.3040 C   0  0  0  0  0  0  0  0  0  0  0  0
    4.8520   14.7920  -10.1880 O   0  0  0  0  0  0  0  0  0  0  0  0
    6.1520   13.5130   -8.8840 O   0  0  0  0  0  0  0  0  0  0  0  0
    1.6580   16.8130  -11.9920 N   0  0  0  0  0  2  0  0  0  0  0  0
    2.3630   16.6600  -11.2430 H   0  0  0  0  0  0  0  0  0  0  0  0
    0.5750   15.8710  -12.1280 C   0  0  2  0  0  0  0  0  0  0  0  0
    0.1290   15.9910  -13.1150 H   0  0  0  0  0  0  0  0  0  0  0  0
   -0.5220   16.1130  -11.1130 C   0  0  0  0  0  0  0  0  0  0  0  0
   -0.2990   16.7340  -10.0760 O   0  0  0  0  0  0  0  0  0  0  0  0
    1.1300   14.4960  -11.9520 C   0  0  0  0  0  0  0  0  0  0  0  0
    0.3140   13.7740  -11.9180 H   0  0  0  0  0  0  0  0  0  0  0  0
    1.6970   14.4460  -11.0220 H   0  0  0  0  0  0  0  0  0  0  0  0
    1.9940   14.1960  -13.0610 O   0  0  0  0  0  0  0  0  0  0  0  0
    2.3660   13.2850  -12.9510 H   0  0  0  0  0  0  0  0  0  0  0  0
   -1.7070   15.5990  -11.3820 N   0  0  0  0  0  0  0  0  0  0  0  0
   -1.8300   15.0390  -12.2500 H   0  0  0  0  0  0  0  0  0  0  0  0
   -2.8500   15.7940  -10.4960 C   0  0  2  0  0  0  0  0  0  0  0  0
   -2.4940   15.6940   -9.4710 H   0  0  0  0  0  0  0  0  0  0  0  0
   -3.9360   14.7420  -10.7100 C   0  0  0  0  0  0  0  0  0  0  0  0
   -4.1170   14.2150  -11.8220 O   0  0  0  0  0  0  0  0  0  0  0  0
   -3.4310   17.1680  -10.7260 C   0  0  0  0  0  0  0  0  0  0  0  0
   -3.6970   17.2780  -11.7770 H   0  0  0  0  0  0  0  0  0  0  0  0
   -2.6920   17.9230  -10.4590 H   0  0  0  0  0  0  0  0  0  0  0  0
   -4.5930   17.3400   -9.9250 O   0  0  0  0  0  0  0  0  0  0  0  0
   -4.9690   18.2430  -10.0800 H   0  0  0  0  0  0  0  0  0  0  0  0
   -4.6520   14.4140   -9.6350 N   0  0  0  0  0  0  0  0  0  0  0  0
   -4.3590   14.7920   -8.7110 H   0  0  0  0  0  0  0  0  0  0  0  0
   -5.8320   13.5460   -9.6910 C   0  0  2  0  0  0  0  0  0  0  0  0
   -5.6450   12.7780  -10.4420 H   0  0  0  0  0  0  0  0  0  0  0  0
   -7.0770   14.3290  -10.1220 C   0  0  0  0  0  3  0  0  0  0  0  0
   -8.0250   13.7390  -10.5890 O   0  0  0  0  0  0  0  0  0  0  0  0
   -6.0610   12.8570   -8.3570 C   0  0  0  0  0  0  0  0  0  0  0  0
   -5.9730   13.6020   -7.5670 H   0  0  0  0  0  0  0  0  0  0  0  0
   -7.0700   12.4440   -8.3540 H   0  0  0  0  0  0  0  0  0  0  0  0
   -5.0730   11.7210   -8.0610 C   0  0  0  0  0  0  0  0  0  0  0  0
   -4.0720   11.8810   -7.1020 C   0  0  0  0  0  0  0  0  0  0  0  0
   -3.9860   12.8270   -6.5670 H   0  0  0  0  0  0  0  0  0  0  0  0
   -5.1740   10.4980   -8.7080 C   0  0  0  0  0  0  0  0  0  0  0  0
   -5.9560   10.3530   -9.4530 H   0  0  0  0  0  0  0  0  0  0  0  0
   -3.1820   10.8480   -6.8190 C   0  0  0  0  0  0  0  0  0  0  0  0
   -2.4060   10.9870   -6.0660 H   0  0  0  0  0  0  0  0  0  0  0  0
   -4.2920    9.4420   -8.4250 C   0  0  0  0  0  0  0  0  0  0  0  0
   -4.4060    8.4830   -8.9310 H   0  0  0  0  0  0  0  0  0  0  0  0
   -3.2860    9.6220   -7.5080 C   0  0  0  0  0  0  0  0  0  0  0  0
   -2.5720    8.8220   -7.3140 H   0  0  0  0  0  0  0  0  0  0  0  0
   -3.3140    5.0230  -13.0570 N   0  0  0  0  0  2  0  0  0  0  0  0
   -4.1400    5.6150  -12.8370 H   0  0  0  0  0  0  0  0  0  0  0  0
   -2.5170    4.4610  -11.9940 C   0  0  2  0  0  0  0  0  0  0  0  0
   -1.7250    3.8470  -12.4230 H   0  0  0  0  0  0  0  0  0  0  0  0
   -3.4380    3.6400  -11.1070 C   0  0  0  0  0  3  0  0  0  0  0  0
   -4.4710    4.1900  -10.6370 O   0  0  0  0  0  0  0  0  0  0  0  0
   -1.8540    5.5840  -11.1350 C   0  0  0  0  0  0  0  0  0  0  0  0
   -2.6490    6.2450  -10.7900 H   0  0  0  0  0  0  0  0  0  0  0  0
   -1.1450    4.9970   -9.9330 C   0  0  0  0  0  0  0  0  0  0  0  0
   -1.8650    4.4610   -9.3150 H   0  0  0  0  0  0  0  0  0  0  0  0
   -0.3700    4.3090  -10.2700 H   0  0  0  0  0  0  0  0  0  0  0  0
   -0.6920    5.8000   -9.3520 H   0  0  0  0  0  0  0  0  0  0  0  0
   -0.8790    6.3820  -11.9530 C   0  0  0  0  0  0  0  0  0  0  0  0
   -0.0980    5.7220  -12.3300 H   0  0  0  0  0  0  0  0  0  0  0  0
   -1.4020    6.8440  -12.7900 H   0  0  0  0  0  0  0  0  0  0  0  0
   -0.4320    7.1570  -11.3300 H   0  0  0  0  0  0  0  0  0  0  0  0
   -4.5210    2.0210   -7.7850 N   0  0  0  0  0  2  0  0  0  0  0  0
   -5.4600    2.1270   -8.2190 H   0  0  0  0  0  0  0  0  0  0  0  0
   -4.3760    2.2860   -6.3400 C   0  0  2  0  0  0  0  0  0  0  0  0
   -3.3700    1.9630   -6.0710 H   0  0  0  0  0  0  0  0  0  0  0  0
   -5.3740    1.4700   -5.5200 C   0  0  0  0  0  3  0  0  0  0  0  0
   -6.6090    1.7400   -5.5300 O   0  0  0  0  0  0  0  0  0  0  0  0
   -4.4620    3.8040   -5.9870 C   0  0  2  0  0  0  0  0  0  0  0  0
   -5.4400    4.1780   -6.2900 H   0  0  0  0  0  0  0  0  0  0  0  0
   -3.3750    4.5860   -6.7450 C   0  0  0  0  0  0  0  0  0  0  0  0
   -2.4260    4.4330   -6.2310 H   0  0  0  0  0  0  0  0  0  0  0  0
   -3.3090    4.1820   -7.7550 H   0  0  0  0  0  0  0  0  0  0  0  0
   -4.3050    4.0130   -4.4580 C   0  0  0  0  0  0  0  0  0  0  0  0
   -5.1000    3.4810   -3.9360 H   0  0  0  0  0  0  0  0  0  0  0  0
   -3.3370    3.6280   -4.1370 H   0  0  0  0  0  0  0  0  0  0  0  0
   -4.3670    5.0770   -4.2300 H   0  0  0  0  0  0  0  0  0  0  0  0
   -3.6210    6.0930   -6.8510 C   0  0  0  0  0  0  0  0  0  0  0  0
   -4.5590    6.2710   -7.3760 H   0  0  0  0  0  0  0  0  0  0  0  0
   -3.6760    6.5220   -5.8510 H   0  0  0  0  0  0  0  0  0  0  0  0
   -2.8020    6.5560   -7.4010 H   0  0  0  0  0  0  0  0  0  0  0  0
   -7.1030    4.9550  -11.2140 N   0  0  0  0  0  2  0  0  0  0  0  0
   -6.1220    4.6450  -11.0650 H   0  0  0  0  0  0  0  0  0  0  0  0
   -7.3690    6.3930  -11.2260 C   0  0  2  0  0  0  0  0  0  0  0  0
   -8.4260    6.5500  -11.4390 H   0  0  0  0  0  0  0  0  0  0  0  0
   -6.5510    7.1110  -12.3230 C   0  0  0  0  0  3  0  0  0  0  0  0
   -5.3670    6.8340  -12.4820 O   0  0  0  0  0  0  0  0  0  0  0  0
   -6.9990    6.9690   -9.8590 C   0  0  0  0  0  0  0  0  0  0  0  0
   -5.9460    6.7590   -9.6690 H   0  0  0  0  0  0  0  0  0  0  0  0
   -7.1550    8.0480   -9.8840 H   0  0  0  0  0  0  0  0  0  0  0  0
   -7.8100    6.3970   -8.7320 C   0  0  0  0  0  0  0  0  0  0  0  0
   -9.1120    6.7880   -8.4820 N   0  0  0  0  0  0  0  0  0  0  0  0
   -7.5200    5.4300   -7.8250 C   0  0  0  0  0  0  0  0  0  0  0  0
   -6.5730    4.9000   -7.7210 H   0  0  0  0  0  0  0  0  0  0  0  0
   -9.5840    6.0790   -7.4730 C   0  0  0  0  0  0  0  0  0  0  0  0
  -10.5840    6.1660   -7.0470 H   0  0  0  0  0  0  0  0  0  0  0  0
   -8.6430    5.2470   -7.0660 N   0  0  0  0  0  0  0  0  0  0  0  0
   -4.3430    9.9870  -13.8600 N   0  0  0  0  0  2  0  0  0  0  0  0
   -3.9430    9.2670  -14.4950 H   0  0  0  0  0  0  0  0  0  0  0  0
   -3.4660   11.0950  -13.4060 C   0  0  2  0  0  0  0  0  0  0  0  0
   -3.9980   11.6020  -12.6010 H   0  0  0  0  0  0  0  0  0  0  0  0
   -3.1980   12.0700  -14.5610 C   0  0  0  0  0  3  0  0  0  0  0  0
   -2.6940   11.6660  -15.6100 O   0  0  0  0  0  0  0  0  0  0  0  0
   -2.1230   10.5980  -12.8370 C   0  0  0  0  0  0  0  0  0  0  0  0
   -1.6160   10.0380  -13.6230 H   0  0  0  0  0  0  0  0  0  0  0  0
   -1.2160   11.7770  -12.4230 C   0  0  0  0  0  0  0  0  0  0  0  0
   -1.0140   12.4010  -13.2930 H   0  0  0  0  0  0  0  0  0  0  0  0
   -1.7190   12.3690  -11.6580 H   0  0  0  0  0  0  0  0  0  0  0  0
   -0.2780   11.3900  -12.0260 H   0  0  0  0  0  0  0  0  0  0  0  0
   -2.3600    9.6900  -11.6480 C   0  0  0  0  0  0  0  0  0  0  0  0
   -2.8940   10.2400  -10.8730 H   0  0  0  0  0  0  0  0  0  0  0  0
   -2.9540    8.8310  -11.9610 H   0  0  0  0  0  0  0  0  0  0  0  0
   -1.4020    9.3470  -11.2570 H   0  0  0  0  0  0  0  0  0  0  0  0
   10.6540   11.3050   -5.5760 N   0  0  0  0  0  2  0  0  0  0  0  0
   10.3920   12.2850   -5.8030 H   0  0  0  0  0  0  0  0  0  0  0  0
   10.0940   10.6720   -4.3490 C   0  0  2  0  0  0  0  0  0  0  0  0
   10.8680    9.9920   -3.9930 H   0  0  0  0  0  0  0  0  0  0  0  0
    8.8430    9.8410   -4.6350 C   0  0  0  0  0  0  0  0  0  0  0  0
    8.3760    9.1070   -3.7350 O   0  0  0  0  0  0  0  0  0  0  0  0
    9.8210   11.6790   -3.2540 C   0  0  0  0  0  0  0  0  0  0  0  0
   10.7510   12.1790   -2.9810 H   0  0  0  0  0  0  0  0  0  0  0  0
    9.1020   12.4160   -3.6110 H   0  0  0  0  0  0  0  0  0  0  0  0
    9.4140   11.1650   -2.3830 H   0  0  0  0  0  0  0  0  0  0  0  0
    8.3280    9.9240   -5.8760 N   0  0  0  0  0  0  0  0  0  0  0  0
    8.8050   10.5390   -6.5650 H   0  0  0  0  0  0  0  0  0  0  0  0
    7.1420    9.2010   -6.3060 C   0  0  2  0  0  0  0  0  0  0  0  0
    6.4000    9.3360   -5.5190 H   0  0  0  0  0  0  0  0  0  0  0  0
    7.4250    7.7530   -6.4980 C   0  0  0  0  0  0  0  0  0  0  0  0
    8.5700    7.2700   -6.4620 O   0  0  0  0  0  0  0  0  0  0  0  0
    6.6180    9.7450   -7.6390 C   0  0  0  0  0  0  0  0  0  0  0  0
    5.6190    9.3460   -7.8150 H   0  0  0  0  0  0  0  0  0  0  0  0
    7.2840    9.4210   -8.4390 H   0  0  0  0  0  0  0  0  0  0  0  0
    6.5530   11.1910   -7.6390 O   0  0  0  0  0  0  0  0  0  0  0  0
    6.2110   11.5050   -8.5140 H   0  0  0  0  0  0  0  0  0  0  0  0
    6.3550    7.0580   -6.8100 N   0  0  0  0  0  0  0  0  0  0  0  0
    5.4610    7.5640   -6.9720 H   0  0  0  0  0  0  0  0  0  0  0  0
    6.3700    5.6400   -6.9350 C   0  0  2  0  0  0  0  0  0  0  0  0
    7.1620    5.1570   -6.3640 H   0  0  0  0  0  0  0  0  0  0  0  0
    6.5790    5.3360   -8.4090 C   0  0  0  0  0  3  0  0  0  0  0  0
    6.0940    6.0730   -9.2600 O   0  0  0  0  0  0  0  0  0  0  0  0
    5.0220    5.1190   -6.4090 C   0  0  0  0  0  0  0  0  0  0  0  0
    4.2350    5.7010   -6.8870 H   0  0  0  0  0  0  0  0  0  0  0  0
    4.9330    4.0750   -6.7090 H   0  0  0  0  0  0  0  0  0  0  0  0
    4.7900    5.1880   -4.8740 C   0  0  0  0  0  0  0  0  0  0  0  0
    5.0100    6.2120   -4.5710 H   0  0  0  0  0  0  0  0  0  0  0  0
    3.3110    4.7880   -4.5700 C   0  0  0  0  0  0  0  0  0  0  0  0
    2.6380    5.4790   -5.0770 H   0  0  0  0  0  0  0  0  0  0  0  0
    3.1300    3.7740   -4.9260 H   0  0  0  0  0  0  0  0  0  0  0  0
    3.1370    4.8330   -3.4950 H   0  0  0  0  0  0  0  0  0  0  0  0
    5.7270    4.2640   -4.0560 C   0  0  0  0  0  0  0  0  0  0  0  0
    5.5710    3.2290   -4.3610 H   0  0  0  0  0  0  0  0  0  0  0  0
    6.7640    4.5460   -4.2400 H   0  0  0  0  0  0  0  0  0  0  0  0
    5.5030    4.3690   -2.9940 H   0  0  0  0  0  0  0  0  0  0  0  0
    5.3050    3.2970  -10.3550 N   0  0  0  0  0  2  0  0  0  0  0  0
    5.3190    3.2100   -9.3190 H   0  0  0  0  0  0  0  0  0  0  0  0
    4.1120    2.9140  -11.0930 C   0  0  2  0  0  0  0  0  0  0  0  0
    4.3770    2.2010  -11.8730 H   0  0  0  0  0  0  0  0  0  0  0  0
    3.5250    4.1710  -11.7290 C   0  0  0  0  0  0  0  0  0  0  0  0
    2.8290    4.0740  -12.7370 O   0  0  0  0  0  0  0  0  0  0  0  0
    3.0890    2.1810  -10.2000 C   0  0  0  0  0  0  0  0  0  0  0  0
    2.2390    1.8870  -10.8160 H   0  0  0  0  0  0  0  0  0  0  0  0
    3.5630    1.2900   -9.7890 H   0  0  0  0  0  0  0  0  0  0  0  0
    2.5850    3.0260   -9.0590 C   0  0  0  0  0  0  0  0  0  0  0  0
    3.2850    2.9380   -8.2280 H   0  0  0  0  0  0  0  0  0  0  0  0
    2.5440    4.0640   -9.3890 H   0  0  0  0  0  0  0  0  0  0  0  0
    1.2080    2.6210   -8.5730 C   0  0  0  0  0  0  0  0  0  0  0  0
    0.7530    3.4710   -8.0650 H   0  0  0  0  0  0  0  0  0  0  0  0
    0.6000    2.3470   -9.4350 H   0  0  0  0  0  0  0  0  0  0  0  0
    1.2480    1.4500   -7.6160 C   0  0  0  0  0  0  0  0  0  0  0  0
    2.1300    1.5540   -6.9850 H   0  0  0  0  0  0  0  0  0  0  0  0
    1.3270    0.5330   -8.2000 H   0  0  0  0  0  0  0  0  0  0  0  0
    0.0220    1.3380   -6.7120 N   0  0  0  0  0  4  0  0  0  0  0  0
   -0.0630    2.2000   -6.1370 H   0  0  0  0  0  0  0  0  0  0  0  0
   -0.8300    1.2250   -7.2980 H   0  0  0  0  0  0  0  0  0  0  0  0
    0.1270    0.5130   -6.0880 H   0  0  0  0  0  0  0  0  0  0  0  0
    3.8150    5.3320  -11.1570 N   0  0  0  0  0  0  0  0  0  0  0  0
    4.3440    5.3460  -10.2620 H   0  0  0  0  0  0  0  0  0  0  0  0
    3.4060    6.5700  -11.7600 C   0  0  2  0  0  0  0  0  0  0  0  0
    2.6010    6.3500  -12.4610 H   0  0  0  0  0  0  0  0  0  0  0  0
    4.5830    7.2000  -12.5340 C   0  0  0  0  0  3  0  0  0  0  0  0
    4.3900    7.6850  -13.6440 O   0  0  0  0  0  0  0  0  0  0  0  0
    2.8330    7.5740  -10.6990 C   0  0  0  0  0  0  0  0  0  0  0  0
    1.7520    7.4410  -10.6510 H   0  0  0  0  0  0  0  0  0  0  0  0
    3.2710    7.3350   -9.7300 H   0  0  0  0  0  0  0  0  0  0  0  0
    3.1220    9.0400  -11.0060 C   0  0  0  0  0  0  0  0  0  0  0  0
    2.4190    9.6990  -11.9770 C   0  0  0  0  0  0  0  0  0  0  0  0
    1.6340    9.1740  -12.5200 H   0  0  0  0  0  0  0  0  0  0  0  0
    4.1580    9.7400  -10.3510 C   0  0  0  0  0  0  0  0  0  0  0  0
    4.7460    9.2230   -9.5930 H   0  0  0  0  0  0  0  0  0  0  0  0
    2.7000   11.0760  -12.2930 C   0  0  0  0  0  0  0  0  0  0  0  0
    2.1060   11.5870  -13.0510 H   0  0  0  0  0  0  0  0  0  0  0  0
    4.4620   11.1120  -10.6520 C   0  0  0  0  0  0  0  0  0  0  0  0
    5.2550   11.6380  -10.1200 H   0  0  0  0  0  0  0  0  0  0  0  0
    3.7150   11.7570  -11.6450 C   0  0  0  0  0  0  0  0  0  0  0  0
    3.9630   13.0750  -12.0290 O   0  0  0  0  0  0  0  0  0  0  0  0
    3.3260   13.3360  -12.7410 H   0  0  0  0  0  0  0  0  0  0  0  0
   10.9780    6.3050   -4.9480 N   0  0  0  0  0  2  0  0  0  0  0  0
   10.1880    5.9880   -5.5450 H   0  0  0  0  0  0  0  0  0  0  0  0
   10.7200    6.5580   -3.5270 C   0  0  2  0  0  0  0  0  0  0  0  0
   10.9690    7.6020   -3.3390 H   0  0  0  0  0  0  0  0  0  0  0  0
   11.6250    5.7190   -2.6400 C   0  0  0  0  0  3  0  0  0  0  0  0
   12.2670    6.2920   -1.7970 O   0  0  0  0  0  0  0  0  0  0  0  0
    9.2040    6.4100   -3.1540 C   0  0  0  0  0  0  0  0  0  0  0  0
    8.6640    7.2090   -3.6620 H   0  0  0  0  0  0  0  0  0  0  0  0
    8.8680    5.4460   -3.5360 H   0  0  0  0  0  0  0  0  0  0  0  0
    8.8060    6.4750   -1.6050 C   0  0  0  0  0  0  0  0  0  0  0  0
    9.0730    5.5270   -1.1380 H   0  0  0  0  0  0  0  0  0  0  0  0
    9.3690    7.2810   -1.1350 H   0  0  0  0  0  0  0  0  0  0  0  0
    7.2710    6.7340   -1.3710 C   0  0  0  0  0  0  0  0  0  0  0  0
    6.9860    6.4380   -0.3620 H   0  0  0  0  0  0  0  0  0  0  0  0
    6.6770    6.1740   -2.0940 H   0  0  0  0  0  0  0  0  0  0  0  0
    7.0740    8.1750   -1.5550 N   0  0  0  0  0  0  0  0  0  0  0  0
    7.9010    8.7810   -1.3810 H   0  0  0  0  0  0  0  0  0  0  0  0
    5.9530    8.7950   -1.9200 C   0  0  0  0  0  0  0  0  0  0  0  0
    4.8300    8.1290   -2.1550 N   0  0  0  0  0  4  0  0  0  0  0  0
    4.8090    7.0940   -2.0560 H   0  0  0  0  0  0  0  0  0  0  0  0
    3.9710    8.6420   -2.4390 H   0  0  0  0  0  0  0  0  0  0  0  0
    5.9750   10.1110   -2.0680 N   0  0  0  0  0  0  0  0  0  0  0  0
    6.8550   10.6390   -1.9000 H   0  0  0  0  0  0  0  0  0  0  0  0
    5.1120   10.6170   -2.3520 H   0  0  0  0  0  0  0  0  0  0  0  0
   11.6800   13.6970    2.1500 N   0  0  0  0  0  2  0  0  0  0  0  0
   11.0060   14.3750    1.7400 H   0  0  0  0  0  0  0  0  0  0  0  0
   12.3750   12.7460    1.2760 C   0  0  2  0  0  0  0  0  0  0  0  0
   12.5890   11.8420    1.8460 H   0  0  0  0  0  0  0  0  0  0  0  0
   13.6730   13.4000    0.7880 C   0  0  0  0  0  3  0  0  0  0  0  0
   13.6690   14.3550    0.0170 O   0  0  0  0  0  0  0  0  0  0  0  0
   11.5200   12.3200    0.0890 C   0  0  0  0  0  0  0  0  0  0  0  0
   11.3570   13.1990   -0.5350 H   0  0  0  0  0  0  0  0  0  0  0  0
   12.0810   11.5750   -0.4740 H   0  0  0  0  0  0  0  0  0  0  0  0
   10.1640   11.7270    0.4160 C   0  0  0  0  0  0  0  0  0  0  0  0
   10.0310   10.3500    0.7370 C   0  0  0  0  0  0  0  0  0  0  0  0
   10.9170    9.7150    0.7680 H   0  0  0  0  0  0  0  0  0  0  0  0
    9.0060   12.5450    0.3790 C   0  0  0  0  0  0  0  0  0  0  0  0
    9.1020   13.6000    0.1210 H   0  0  0  0  0  0  0  0  0  0  0  0
    8.7740    9.8000    1.0140 C   0  0  0  0  0  0  0  0  0  0  0  0
    8.6750    8.7420    1.2580 H   0  0  0  0  0  0  0  0  0  0  0  0
    7.7410   12.0170    0.6690 C   0  0  0  0  0  0  0  0  0  0  0  0
    6.8570   12.6550    0.6610 H   0  0  0  0  0  0  0  0  0  0  0  0
    7.6340   10.6360    0.9730 C   0  0  0  0  0  0  0  0  0  0  0  0
    6.3730   10.1120    1.2340 O   0  0  0  0  0  0  0  0  0  0  0  0
    6.4530    9.1450    1.4290 H   0  0  0  0  0  0  0  0  0  0  0  0
    6.8140   13.4770   -8.2220 H   0  0  0  0  0  0  0  0  0  0  0  0
   -8.7350    4.5970   -6.3320 H   0  0  0  0  0  0  0  0  0  0  0  0
  1  2  1  0
  1  3  1  0
  3  4  1  6
  3  5  1  0
  3  7  1  0
  5  6  2  0
  7  8  1  0
  7  9  1  0
  7 10  1  0
 10 11  2  0
 10 12  1  0
 12250  1  0
 13 14  1  0
 13 15  1  0
 15 16  1  6
 15 17  1  0
 15 19  1  0
 17 18  2  0
 17 24  1  0
 19 20  1  0
 19 21  1  0
 19 22  1  0
 22 23  1  0
 24 25  1  0
 24 26  1  0
 26 27  1  1
 26 28  1  0
 26 30  1  0
 28 29  2  0
 28 35  1  0
 30 31  1  0
 30 32  1  0
 30 33  1  0
 33 34  1  0
 35 36  1  0
 35 37  1  0
 37 38  1  6
 37 39  1  0
 37 41  1  0
 39 40  2  0
 41 42  1  0
 41 43  1  0
 41 44  1  0
 44 45  2  0
 44 47  1  0
 45 46  1  0
 45 49  1  0
 47 48  1  0
 47 51  2  0
 49 50  1  0
 49 53  2  0
 51 52  1  0
 51 53  1  0
 53 54  1  0
 55 56  1  0
 55 57  1  0
 57 58  1  6
 57 59  1  0
 57 61  1  0
 59 60  2  0
 61 62  1  0
 61 63  1  0
 61 67  1  0
 63 64  1  0
 63 65  1  0
 63 66  1  0
 67 68  1  0
 67 69  1  0
 67 70  1  0
 71 72  1  0
 71 73  1  0
 73 74  1  1
 73 75  1  0
 73 77  1  0
 75 76  2  0
 77 78  1  6
 77 79  1  0
 77 82  1  0
 79 80  1  0
 79 81  1  0
 79 86  1  0
 82 83  1  0
 82 84  1  0
 82 85  1  0
 86 87  1  0
 86 88  1  0
 86 89  1  0
 90 91  1  0
 90 92  1  0
 92 93  1  6
 92 94  1  0
 92 96  1  0
 94 95  2  0
 96 97  1  0
 96 98  1  0
 96 99  1  0
 99100  1  0
 99101  2  0
100103  2  0
101102  1  0
101105  1  0
103104  1  0
103105  1  0
105251  1  0
106107  1  0
106108  1  0
108109  1  1
108110  1  0
108112  1  0
110111  2  0
112113  1  0
112114  1  0
112118  1  0
114115  1  0
114116  1  0
114117  1  0
118119  1  0
118120  1  0
118121  1  0
122123  1  0
122124  1  0
124125  1  1
124126  1  0
124128  1  0
126127  2  0
126132  1  0
128129  1  0
128130  1  0
128131  1  0
132133  1  0
132134  1  0
134135  1  1
134136  1  0
134138  1  0
136137  2  0
136143  1  0
138139  1  0
138140  1  0
138141  1  0
141142  1  0
143144  1  0
143145  1  0
145146  1  1
145147  1  0
145149  1  0
147148  2  0
149150  1  0
149151  1  0
149152  1  0
152153  1  0
152154  1  0
152158  1  0
154155  1  0
154156  1  0
154157  1  0
158159  1  0
158160  1  0
158161  1  0
162163  1  0
162164  1  0
164165  1  6
164166  1  0
164168  1  0
166167  2  0
166184  1  0
168169  1  0
168170  1  0
168171  1  0
171172  1  0
171173  1  0
171174  1  0
174175  1  0
174176  1  0
174177  1  0
177178  1  0
177179  1  0
177180  1  0
180181  1  0
180182  1  0
180183  1  0
184185  1  0
184186  1  0
186187  1  6
186188  1  0
186190  1  0
188189  2  0
190191  1  0
190192  1  0
190193  1  0
193194  2  0
193196  1  0
194195  1  0
194198  1  0
196197  1  0
196200  2  0
198199  1  0
198202  2  0
200201  1  0
200202  1  0
202203  1  0
203204  1  0
205206  1  0
205207  1  0
207208  1  6
207209  1  0
207211  1  0
209210  2  0
211212  1  0
211213  1  0
211214  1  0
214215  1  0
214216  1  0
214217  1  0
217218  1  0
217219  1  0
217220  1  0
220221  1  0
220222  1  0
222223  2  0
222226  1  0
223224  1  0
223225  1  0
226227  1  0
226228  1  0
229230  1  0
229231  1  0
231232  1  1
231233  1  0
231235  1  0
233234  2  0
235236  1  0
235237  1  0
235238  1  0
238239  2  0
238241  1  0
239240  1  0
239243  1  0
241242  1  0
241245  2  0
243244  1  0
243247  2  0
245246  1  0
245247  1  0
247248  1  0
248249  1  0
M  RAD  8   1   2   5   2  13   2  39   2  55   2  59   2  71   2  75   2
M  RAD  8  90   2  94   2 106   2 110   2 122   2 147   2 162   2 188   2
M  CHG  2 180   1 223   1
M  RAD  4 205   2 209   2 229   2 233   2
M  END
$$$$

     RDKit          3D

251245  0  0  0  0  0  0  0  0999 V2000
    8.2390   15.7430  -10.2460 N   0  0  0  0  0  2  0  0  0  0  0  0
    8.4060   14.8450   -9.7480 H   0  0  0  0  0  0  0  0  0  0  0  0
    7.1270   16.5820   -9.8330 C   0  0  2  0  0  0  0  0  0  0  0  0
    6.5240   16.7530  -10.7240 H   0  0  0  0  0  0  0  0  0  0  0  0
    7.5010   17.9630   -9.3590 C   0  0  0  0  0  3  0  0  0  0  0  0
    8.3130   18.1090   -8.4540 O   0  0  0  0  0  0  0  0  0  0  0  0
    6.3630   15.8620   -8.7680 C   0  0  0  0  0  0  0  0  0  0  0  0
    7.0440   15.5910   -7.9610 H   0  0  0  0  0  0  0  0  0  0  0  0
    5.5850   16.5200   -8.3800 H   0  0  0  0  0  0  0  0  0  0  0  0
    5.7360   14.6350   -9.3040 C   0  0  0  0  0  0  0  0  0  0  0  0
    4.8520   14.7920  -10.1880 O   0  0  0  0  0  0  0  0  0  0  0  0
    6.1520   13.5130   -8.8840 O   0  0  0  0  0  0  0  0  0  0  0  0
    1.6580   16.8130  -11.9920 N   0  0  0  0  0  2  0  0  0  0  0  0
    2.3630   16.6600  -11.2430 H   0  0  0  0  0  0  0  0  0  0  0  0
    0.5750   15.8710  -12.1280 C   0  0  2  0  0  0  0  0  0  0  0  0
    0.1290   15.9910  -13.1150 H   0  0  0  0  0  0  0  0  0  0  0  0
   -0.5220   16.1130  -11.1130 C   0  0  0  0  0  0  0  0  0  0  0  0
   -0.2990   16.7340  -10.0760 O   0  0  0  0  0  0  0  0  0  0  0  0
    1.1300   14.4960  -11.9520 C   0  0  0  0  0  0  0  0  0  0  0  0
    0.3140   13.7740  -11.9180 H   0  0  0  0  0  0  0  0  0  0  0  0
    1.6970   14.4460  -11.0220 H   0  0  0  0  0  0  0  0  0  0  0  0
    1.9940   14.1960  -13.0610 O   0  0  0  0  0  0  0  0  0  0  0  0
    2.3660   13.2850  -12.9510 H   0  0  0  0  0  0  0  0  0  0  0  0
   -1.7070   15.5990  -11.3820 N   0  0  0  0  0  0  0  0  0  0  0  0
   -1.8300   15.0390  -12.2500 H   0  0  0  0  0  0  0  0  0  0  0  0
   -2.8500   15.7940  -10.4960 C   0  0  2  0  0  0  0  0  0  0  0  0
   -2.4940   15.6940   -9.4710 H   0  0  0  0  0  0  0  0  0  0  0  0
   -3.9360   14.7420  -10.7100 C   0  0  0  0  0  0  0  0  0  0  0  0
   -4.1170   14.2150  -11.8220 O   0  0  0  0  0  0  0  0  0  0  0  0
   -3.4310   17.1680  -10.7260 C   0  0  0  0  0  0  0  0  0  0  0  0
   -3.6970   17.2780  -11.7770 H   0  0  0  0  0  0  0  0  0  0  0  0
   -2.6920   17.9230  -10.4590 H   0  0  0  0  0  0  0  0  0  0  0  0
   -4.5930   17.3400   -9.9250 O   0  0  0  0  0  0  0  0  0  0  0  0
   -4.9690   18.2430  -10.0800 H   0  0  0  0  0  0  0  0  0  0  0  0
   -4.6520   14.4140   -9.6350 N   0  0  0  0  0  0  0  0  0  0  0  0
   -4.3590   14.7920   -8.7110 H   0  0  0  0  0  0  0  0  0  0  0  0
   -5.8320   13.5460   -9.6910 C   0  0  2  0  0  0  0  0  0  0  0  0
   -5.6450   12.7780  -10.4420 H   0  0  0  0  0  0  0  0  0  0  0  0
   -7.0770   14.3290  -10.1220 C   0  0  0  0  0  3  0  0  0  0  0  0
   -8.0250   13.7390  -10.5890 O   0  0  0  0  0  0  0  0  0  0  0  0
   -6.0610   12.8570   -8.3570 C   0  0  0  0  0  0  0  0  0  0  0  0
   -5.9730   13.6020   -7.5670 H   0  0  0  0  0  0  0  0  0  0  0  0
   -7.0700   12.4440   -8.3540 H   0  0  0  0  0  0  0  0  0  0  0  0
   -5.0730   11.7210   -8.0610 C   0  0  0  0  0  0  0  0  0  0  0  0
   -4.0720   11.8810   -7.1020 C   0  0  0  0  0  0  0  0  0  0  0  0
   -3.9860   12.8270   -6.5670 H   0  0  0  0  0  0  0  0  0  0  0  0
   -5.1740   10.4980   -8.7080 C   0  0  0  0  0  0  0  0  0  0  0  0
   -5.9560   10.3530   -9.4530 H   0  0  0  0  0  0  0  0  0  0  0  0
   -3.1820   10.8480   -6.8190 C   0  0  0  0  0  0  0  0  0  0  0  0
   -2.4060   10.9870   -6.0660 H   0  0  0  0  0  0  0  0  0  0  0  0
   -4.2920    9.4420   -8.4250 C   0  0  0  0  0  0  0  0  0  0  0  0
   -4.4060    8.4830   -8.9310 H   0  0  0  0  0  0  0  0  0  0  0  0
   -3.2860    9.6220   -7.5080 C   0  0  0  0  0  0  0  0  0  0  0  0
   -2.5720    8.8220   -7.3140 H   0  0  0  0  0  0  0  0  0  0  0  0
   -3.3140    5.0230  -13.0570 N   0  0  0  0  0  2  0  0  0  0  0  0
   -4.1400    5.6150  -12.8370 H   0  0  0  0  0  0  0  0  0  0  0  0
   -2.5170    4.4610  -11.9940 C   0  0  2  0  0  0  0  0  0  0  0  0
   -1.7250    3.8470  -12.4230 H   0  0  0  0  0  0  0  0  0  0  0  0
   -3.4380    3.6400  -11.1070 C   0  0  0  0  0  3  0  0  0  0  0  0
   -4.4710    4.1900  -10.6370 O   0  0  0  0  0  0  0  0  0  0  0  0
   -1.8540    5.5840  -11.1350 C   0  0  0  0  0  0  0  0  0  0  0  0
   -2.6490    6.2450  -10.7900 H   0  0  0  0  0  0  0  0  0  0  0  0
   -1.1450    4.9970   -9.9330 C   0  0  0  0  0  0  0  0  0  0  0  0
   -1.8650    4.4610   -9.3150 H   0  0  0  0  0  0  0  0  0  0  0  0
   -0.3700    4.3090  -10.2700 H   0  0  0  0  0  0  0  0  0  0  0  0
   -0.6920    5.8000   -9.3520 H   0  0  0  0  0  0  0  0  0  0  0  0
   -0.8790    6.3820  -11.9530 C   0  0  0  0  0  0  0  0  0  0  0  0
   -0.0980    5.7220  -12.3300 H   0  0  0  0  0  0  0  0  0  0  0  0
   -1.4020    6.8440  -12.7900 H   0  0  0  0  0  0  0  0  0  0  0  0
   -0.4320    7.1570  -11.3300 H   0  0  0  0  0  0  0  0  0  0  0  0
   -4.5210    2.0210   -7.7850 N   0  0  0  0  0  2  0  0  0  0  0  0
   -5.4600    2.1270   -8.2190 H   0  0  0  0  0  0  0  0  0  0  0  0
   -4.3760    2.2860   -6.3400 C   0  0  2  0  0  0  0  0  0  0  0  0
   -3.3700    1.9630   -6.0710 H   0  0  0  0  0  0  0  0  0  0  0  0
   -5.3740    1.4700   -5.5200 C   0  0  0  0  0  3  0  0  0  0  0  0
   -6.6090    1.7400   -5.5300 O   0  0  0  0  0  0  0  0  0  0  0  0
   -4.4620    3.8040   -5.9870 C   0  0  2  0  0  0  0  0  0  0  0  0
   -5.4400    4.1780   -6.2900 H   0  0  0  0  0  0  0  0  0  0  0  0
   -3.3750    4.5860   -6.7450 C   0  0  0  0  0  0  0  0  0  0  0  0
   -2.4260    4.4330   -6.2310 H   0  0  0  0  0  0  0  0  0  0  0  0
   -3.3090    4.1820   -7.7550 H   0  0  0  0  0  0  0  0  0  0  0  0
   -4.3050    4.0130   -4.4580 C   0  0  0  0  0  0  0  0  0  0  0  0
   -5.1000    3.4810   -3.9360 H   0  0  0  0  0  0  0  0  0  0  0  0
   -3.3370    3.6280   -4.1370 H   0  0  0  0  0  0  0  0  0  0  0  0
   -4.3670    5.0770   -4.2300 H   0  0  0  0  0  0  0  0  0  0  0  0
   -3.6210    6.0930   -6.8510 C   0  0  0  0  0  0  0  0  0  0  0  0
   -4.5590    6.2710   -7.3760 H   0  0  0  0  0  0  0  0  0  0  0  0
   -3.6760    6.5220   -5.8510 H   0  0  0  0  0  0  0  0  0  0  0  0
   -2.8020    6.5560   -7.4010 H   0  0  0  0  0  0  0  0  0  0  0  0
   -7.1030    4.9550  -11.2140 N   0  0  0  0  0  2  0  0  0  0  0  0
   -6.1220    4.6450  -11.0650 H   0  0  0  0  0  0  0  0  0  0  0  0
   -7.3690    6.3930  -11.2260 C   0  0  2  0  0  0  0  0  0  0  0  0
   -8.4260    6.5500  -11.4390 H   0  0  0  0  0  0  0  0  0  0  0  0
   -6.5510    7.1110  -12.3230 C   0  0  0  0  0  3  0  0  0  0  0  0
   -5.3670    6.8340  -12.4820 O   0  0  0  0  0  0  0  0  0  0  0  0
   -6.9990    6.9690   -9.8590 C   0  0  0  0  0  0  0  0  0  0  0  0
   -5.9460    6.7590   -9.6690 H   0  0  0  0  0  0  0  0  0  0  0  0
   -7.1550    8.0480   -9.8840 H   0  0  0  0  0  0  0  0  0  0  0  0
   -7.8100    6.3970   -8.7320 C   0  0  0  0  0  0  0  0  0  0  0  0
   -9.1120    6.7880   -8.4820 N   0  0  0  0  0  0  0  0  0  0  0  0
   -7.5200    5.4300   -7.8250 C   0  0  0  0  0  0  0  0  0  0  0  0
   -6.5730    4.9000   -7.7210 H   0  0  0  0  0  0  0  0  0  0  0  0
   -9.5840    6.0790   -7.4730 C   0  0  0  0  0  0  0  0  0  0  0  0
  -10.5840    6.1660   -7.0470 H   0  0  0  0  0  0  0  0  0  0  0  0
   -8.6430    5.2470   -7.0660 N   0  0  0  0  0  0  0  0  0  0  0  0
   -4.3430    9.9870  -13.8600 N   0  0  0  0  0  2  0  0  0  0  0  0
   -3.9430    9.2670  -14.4950 H   0  0  0  0  0  0  0  0  0  0  0  0
   -3.4660   11.0950  -13.4060 C   0  0  2  0  0  0  0  0  0  0  0  0
   -3.9980   11.6020  -12.6010 H   0  0  0  0  0  0  0  0  0  0  0  0
   -3.1980   12.0700  -14.5610 C   0  0  0  0  0  3  0  0  0  0  0  0
   -2.6940   11.6660  -15.6100 O   0  0  0  0  0  0  0  0  0  0  0  0
   -2.1230   10.5980  -12.8370 C   0  0  0  0  0  0  0  0  0  0  0  0
   -1.6160   10.0380  -13.6230 H   0  0  0  0  0  0  0  0  0  0  0  0
   -1.2160   11.7770  -12.4230 C   0  0  0  0  0  0  0  0  0  0  0  0
   -1.0140   12.4010  -13.2930 H   0  0  0  0  0  0  0  0  0  0  0  0
   -1.7190   12.3690  -11.6580 H   0  0  0  0  0  0  0  0  0  0  0  0
   -0.2780   11.3900  -12.0260 H   0  0  0  0  0  0  0  0  0  0  0  0
   -2.3600    9.6900  -11.6480 C   0  0  0  0  0  0  0  0  0  0  0  0
   -2.8940   10.2400  -10.8730 H   0  0  0  0  0  0  0  0  0  0  0  0
   -2.9540    8.8310  -11.9610 H   0  0  0  0  0  0  0  0  0  0  0  0
   -1.4020    9.3470  -11.2570 H   0  0  0  0  0  0  0  0  0  0  0  0
   10.6540   11.3050   -5.5760 N   0  0  0  0  0  2  0  0  0  0  0  0
   10.3920   12.2850   -5.8030 H   0  0  0  0  0  0  0  0  0  0  0  0
   10.0940   10.6720   -4.3490 C   0  0  2  0  0  0  0  0  0  0  0  0
   10.8680    9.9920   -3.9930 H   0  0  0  0  0  0  0  0  0  0  0  0
    8.8430    9.8410   -4.6350 C   0  0  0  0  0  0  0  0  0  0  0  0
    8.3760    9.1070   -3.7350 O   0  0  0  0  0  0  0  0  0  0  0  0
    9.8210   11.6790   -3.2540 C   0  0  0  0  0  0  0  0  0  0  0  0
   10.7510   12.1790   -2.9810 H   0  0  0  0  0  0  0  0  0  0  0  0
    9.1020   12.4160   -3.6110 H   0  0  0  0  0  0  0  0  0  0  0  0
    9.4140   11.1650   -2.3830 H   0  0  0  0  0  0  0  0  0  0  0  0
    8.3280    9.9240   -5.8760 N   0  0  0  0  0  0  0  0  0  0  0  0
    8.8050   10.5390   -6.5650 H   0  0  0  0  0  0  0  0  0  0  0  0
    7.1420    9.2010   -6.3060 C   0  0  2  0  0  0  0  0  0  0  0  0
    6.4000    9.3360   -5.5190 H   0  0  0  0  0  0  0  0  0  0  0  0
    7.4250    7.7530   -6.4980 C   0  0  0  0  0  0  0  0  0  0  0  0
    8.5700    7.2700   -6.4620 O   0  0  0  0  0  0  0  0  0  0  0  0
    6.6180    9.7450   -7.6390 C   0  0  0  0  0  0  0  0  0  0  0  0
    5.6190    9.3460   -7.8150 H   0  0  0  0  0  0  0  0  0  0  0  0
    7.2840    9.4210   -8.4390 H   0  0  0  0  0  0  0  0  0  0  0  0
    6.5530   11.1910   -7.6390 O   0  0  0  0  0  0  0  0  0  0  0  0
    6.2110   11.5050   -8.5140 H   0  0  0  0  0  0  0  0  0  0  0  0
    6.3550    7.0580   -6.8100 N   0  0  0  0  0  0  0  0  0  0  0  0
    5.4610    7.5640   -6.9720 H   0  0  0  0  0  0  0  0  0  0  0  0
    6.3700    5.6400   -6.9350 C   0  0  2  0  0  0  0  0  0  0  0  0
    7.1620    5.1570   -6.3640 H   0  0  0  0  0  0  0  0  0  0  0  0
    6.5790    5.3360   -8.4090 C   0  0  0  0  0  3  0  0  0  0  0  0
    6.0940    6.0730   -9.2600 O   0  0  0  0  0  0  0  0  0  0  0  0
    5.0220    5.1190   -6.4090 C   0  0  0  0  0  0  0  0  0  0  0  0
    4.2350    5.7010   -6.8870 H   0  0  0  0  0  0  0  0  0  0  0  0
    4.9330    4.0750   -6.7090 H   0  0  0  0  0  0  0  0  0  0  0  0
    4.7900    5.1880   -4.8740 C   0  0  0  0  0  0  0  0  0  0  0  0
    5.0100    6.2120   -4.5710 H   0  0  0  0  0  0  0  0  0  0  0  0
    3.3110    4.7880   -4.5700 C   0  0  0  0  0  0  0  0  0  0  0  0
    2.6380    5.4790   -5.0770 H   0  0  0  0  0  0  0  0  0  0  0  0
    3.1300    3.7740   -4.9260 H   0  0  0  0  0  0  0  0  0  0  0  0
    3.1370    4.8330   -3.4950 H   0  0  0  0  0  0  0  0  0  0  0  0
    5.7270    4.2640   -4.0560 C   0  0  0  0  0  0  0  0  0  0  0  0
    5.5710    3.2290   -4.3610 H   0  0  0  0  0  0  0  0  0  0  0  0
    6.7640    4.5460   -4.2400 H   0  0  0  0  0  0  0  0  0  0  0  0
    5.5030    4.3690   -2.9940 H   0  0  0  0  0  0  0  0  0  0  0  0
    5.3050    3.2970  -10.3550 N   0  0  0  0  0  2  0  0  0  0  0  0
    5.3190    3.2100   -9.3190 H   0  0  0  0  0  0  0  0  0  0  0  0
    4.1120    2.9140  -11.0930 C   0  0  2  0  0  0  0  0  0  0  0  0
    4.3770    2.2010  -11.8730 H   0  0  0  0  0  0  0  0  0  0  0  0
    3.5250    4.1710  -11.7290 C   0  0  0  0  0  0  0  0  0  0  0  0
    2.8290    4.0740  -12.7370 O   0  0  0  0  0  0  0  0  0  0  0  0
    3.0890    2.1810  -10.2000 C   0  0  0  0  0  0  0  0  0  0  0  0
    2.2390    1.8870  -10.8160 H   0  0  0  0  0  0  0  0  0  0  0  0
    3.5630    1.2900   -9.7890 H   0  0  0  0  0  0  0  0  0  0  0  0
    2.5850    3.0260   -9.0590 C   0  0  0  0  0  0  0  0  0  0  0  0
    3.2850    2.9380   -8.2280 H   0  0  0  0  0  0  0  0  0  0  0  0
    2.5440    4.0640   -9.3890 H   0  0  0  0  0  0  0  0  0  0  0  0
    1.2080    2.6210   -8.5730 C   0  0  0  0  0  0  0  0  0  0  0  0
    0.7530    3.4710   -8.0650 H   0  0  0  0  0  0  0  0  0  0  0  0
    0.6000    2.3470   -9.4350 H   0  0  0  0  0  0  0  0  0  0  0  0
    1.2480    1.4500   -7.6160 C   0  0  0  0  0  0  0  0  0  0  0  0
    2.1300    1.5540   -6.9850 H   0  0  0  0  0  0  0  0  0  0  0  0
    1.3270    0.5330   -8.2000 H   0  0  0  0  0  0  0  0  0  0  0  0
    0.0220    1.3380   -6.7120 N   0  0  0  0  0  4  0  0  0  0  0  0
   -0.0630    2.2000   -6.1370 H   0  0  0  0  0  0  0  0  0  0  0  0
   -0.8300    1.2250   -7.2980 H   0  0  0  0  0  0  0  0  0  0  0  0
    0.1270    0.5130   -6.0880 H   0  0  0  0  0  0  0  0  0  0  0  0
    3.8150    5.3320  -11.1570 N   0  0  0  0  0  0  0  0  0  0  0  0
    4.3440    5.3460  -10.2620 H   0  0  0  0  0  0  0  0  0  0  0  0
    3.4060    6.5700  -11.7600 C   0  0  2  0  0  0  0  0  0  0  0  0
    2.6010    6.3500  -12.4610 H   0  0  0  0  0  0  0  0  0  0  0  0
    4.5830    7.2000  -12.5340 C   0  0  0  0  0  3  0  0  0  0  0  0
    4.3900    7.6850  -13.6440 O   0  0  0  0  0  0  0  0  0  0  0  0
    2.8330    7.5740  -10.6990 C   0  0  0  0  0  0  0  0  0  0  0  0
    1.7520    7.4410  -10.6510 H   0  0  0  0  0  0  0  0  0  0  0  0
    3.2710    7.3350   -9.7300 H   0  0  0  0  0  0  0  0  0  0  0  0
    3.1220    9.0400  -11.0060 C   0  0  0  0  0  0  0  0  0  0  0  0
    2.4190    9.6990  -11.9770 C   0  0  0  0  0  0  0  0  0  0  0  0
    1.6340    9.1740  -12.5200 H   0  0  0  0  0  0  0  0  0  0  0  0
    4.1580    9.7400  -10.3510 C   0  0  0  0  0  0  0  0  0  0  0  0
    4.7460    9.2230   -9.5930 H   0  0  0  0  0  0  0  0  0  0  0  0
    2.7000   11.0760  -12.2930 C   0  0  0  0  0  0  0  0  0  0  0  0
    2.1060   11.5870  -13.0510 H   0  0  0  0  0  0  0  0  0  0  0  0
    4.4620   11.1120  -10.6520 C   0  0  0  0  0  0  0  0  0  0  0  0
    5.2550   11.6380  -10.1200 H   0  0  0  0  0  0  0  0  0  0  0  0
    3.7150   11.7570  -11.6450 C   0  0  0  0  0  0  0  0  0  0  0  0
    3.9630   13.0750  -12.0290 O   0  0  0  0  0  0  0  0  0  0  0  0
    3.3260   13.3360  -12.7410 H   0  0  0  0  0  0  0  0  0  0  0  0
   10.9780    6.3050   -4.9480 N   0  0  0  0  0  2  0  0  0  0  0  0
   10.1880    5.9880   -5.5450 H   0  0  0  0  0  0  0  0  0  0  0  0
   10.7200    6.5580   -3.5270 C   0  0  2  0  0  0  0  0  0  0  0  0
   10.9690    7.6020   -3.3390 H   0  0  0  0  0  0  0  0  0  0  0  0
   11.6250    5.7190   -2.6400 C   0  0  0  0  0  3  0  0  0  0  0  0
   12.2670    6.2920   -1.7970 O   0  0  0  0  0  0  0  0  0  0  0  0
    9.2040    6.4100   -3.1540 C   0  0  0  0  0  0  0  0  0  0  0  0
    8.6640    7.2090   -3.6620 H   0  0  0  0  0  0  0  0  0  0  0  0
    8.8680    5.4460   -3.5360 H   0  0  0  0  0  0  0  0  0  0  0  0
    8.8060    6.4750   -1.6050 C   0  0  0  0  0  0  0  0  0  0  0  0
    9.0730    5.5270   -1.1380 H   0  0  0  0  0  0  0  0  0  0  0  0
    9.3690    7.2810   -1.1350 H   0  0  0  0  0  0  0  0  0  0  0  0
    7.2710    6.7340   -1.3710 C   0  0  0  0  0  0  0  0  0  0  0  0
    6.9860    6.4380   -0.3620 H   0  0  0  0  0  0  0  0  0  0  0  0
    6.6770    6.1740   -2.0940 H   0  0  0  0  0  0  0  0  0  0  0  0
    7.0740    8.1750   -1.5550 N   0  0  0  0  0  0  0  0  0  0  0  0
    7.9010    8.7810   -1.3810 H   0  0  0  0  0  0  0  0  0  0  0  0
    5.9530    8.7950   -1.9200 C   0  0  0  0  0  0  0  0  0  0  0  0
    4.8300    8.1290   -2.1550 N   0  0  0  0  0  4  0  0  0  0  0  0
    4.8090    7.0940   -2.0560 H   0  0  0  0  0  0  0  0  0  0  0  0
    3.9710    8.6420   -2.4390 H   0  0  0  0  0  0  0  0  0  0  0  0
    5.9750   10.1110   -2.0680 N   0  0  0  0  0  0  0  0  0  0  0  0
    6.8550   10.6390   -1.9000 H   0  0  0  0  0  0  0  0  0  0  0  0
    5.1120   10.6170   -2.3520 H   0  0  0  0  0  0  0  0  0  0  0  0
   11.6800   13.6970    2.1500 N   0  0  0  0  0  2  0  0  0  0  0  0
   11.0060   14.3750    1.7400 H   0  0  0  0  0  0  0  0  0  0  0  0
   12.3750   12.7460    1.2760 C   0  0  2  0  0  0  0  0  0  0  0  0
   12.5890   11.8420    1.8460 H   0  0  0  0  0  0  0  0  0  0  0  0
   13.6730   13.4000    0.7880 C   0  0  0  0  0  3  0  0  0  0  0  0
   13.6690   14.3550    0.0170 O   0  0  0  0  0  0  0  0  0  0  0  0
   11.5200   12.3200    0.0890 C   0  0  0  0  0  0  0  0  0  0  0  0
   11.3570   13.1990   -0.5350 H   0  0  0  0  0  0  0  0  0  0  0  0
   12.0810   11.5750   -0.4740 H   0  0  0  0  0  0  0  0  0  0  0  0
   10.1640   11.7270    0.4160 C   0  0  0  0  0  0  0  0  0  0  0  0
   10.0310   10.3500    0.7370 C   0  0  0  0  0  0  0  0  0  0  0  0
   10.9170    9.7150    0.7680 H   0  0  0  0  0  0  0  0  0  0  0  0
    9.0060   12.5450    0.3790 C   0  0  0  0  0  0  0  0  0  0  0  0
    9.1020   13.6000    0.1210 H   0  0  0  0  0  0  0  0  0  0  0  0
    8.7740    9.8000    1.0140 C   0  0  0  0  0  0  0  0  0  0  0  0
    8.6750    8.7420    1.2580 H   0  0  0  0  0  0  0  0  0  0  0  0
    7.7410   12.0170    0.6690 C   0  0  0  0  0  0  0  0  0  0  0  0
    6.8570   12.6550    0.6610 H   0  0  0  0  0  0  0  0  0  0  0  0
    7.6340   10.6360    0.9730 C   0  0  0  0  0  0  0  0  0  0  0  0
    6.3730   10.1120    1.2340 O   0  0  0  0  0  0  0  0  0  0  0  0
    6.4530    9.1450    1.4290 H   0  0  0  0  0  0  0  0  0  0  0  0
    6.8140   13.4770   -8.2220 H   0  0  0  0  0  0  0  0  0  0  0  0
   -8.7350    4.5970   -6.3320 H   0  0  0  0  0  0  0  0  0  0  0  0
  1  2  1  0
  1  3  1  0
  3  4  1  6
  3  5  1  0
  3  7  1  0
  5  6  2  0
  7  8  1  0
  7  9  1  0
  7 10  1  0
 10 11  2  0
 10 12  1  0
 12250  1  0
 13 14  1  0
 13 15  1  0
 15 16  1  6
 15 17  1  0
 15 19  1  0
 17 18  2  0
 17 24  1  0
 19 20  1  0
 19 21  1  0
 19 22  1  0
 22 23  1  0
 24 25  1  0
 24 26  1  0
 26 27  1  1
 26 28  1  0
 26 30  1  0
 28 29  2  0
 28 35  1  0
 30 31  1  0
 30 32  1  0
 30 33  1  0
 33 34  1  0
 35 36  1  0
 35 37  1  0
 37 38  1  6
 37 39  1  0
 37 41  1  0
 39 40  2  0
 41 42  1  0
 41 43  1  0
 41 44  1  0
 44 45  2  0
 44 47  1  0
 45 46  1  0
 45 49  1  0
 47 48  1  0
 47 51  2  0
 49 50  1  0
 49 53  2  0
 51 52  1  0
 51 53  1  0
 53 54  1  0
 55 56  1  0
 55 57  1  0
 57 58  1  6
 57 59  1  0
 57 61  1  0
 59 60  2  0
 61 62  1  0
 61 63  1  0
 61 67  1  0
 63 64  1  0
 63 65  1  0
 63 66  1  0
 67 68  1  0
 67 69  1  0
 67 70  1  0
 71 72  1  0
 71 73  1  0
 73 74  1  1
 73 75  1  0
 73 77  1  0
 75 76  2  0
 77 78  1  6
 77 79  1  0
 77 82  1  0
 79 80  1  0
 79 81  1  0
 79 86  1  0
 82 83  1  0
 82 84  1  0
 82 85  1  0
 86 87  1  0
 86 88  1  0
 86 89  1  0
 90 91  1  0
 90 92  1  0
 92 93  1  6
 92 94  1  0
 92 96  1  0
 94 95  2  0
 96 97  1  0
 96 98  1  0
 96 99  1  0
 99100  1  0
 99101  2  0
100103  2  0
101102  1  0
101105  1  0
103104  1  0
103105  1  0
105251  1  0
106107  1  0
106108  1  0
108109  1  1
108110  1  0
108112  1  0
110111  2  0
112113  1  0
112114  1  0
112118  1  0
114115  1  0
114116  1  0
114117  1  0
118119  1  0
118120  1  0
118121  1  0
122123  1  0
122124  1  0
124125  1  1
124126  1  0
124128  1  0
126127  2  0
126132  1  0
128129  1  0
128130  1  0
128131  1  0
132133  1  0
132134  1  0
134135  1  1
134136  1  0
134138  1  0
136137  2  0
136143  1  0
138139  1  0
138140  1  0
138141  1  0
141142  1  0
143144  1  0
143145  1  0
145146  1  1
145147  1  0
145149  1  0
147148  2  0
149150  1  0
149151  1  0
149152  1  0
152153  1  0
152154  1  0
152158  1  0
154155  1  0
154156  1  0
154157  1  0
158159  1  0
158160  1  0
158161  1  0
162163  1  0
162164  1  0
164165  1  6
164166  1  0
164168  1  0
166167  2  0
166184  1  0
168169  1  0
168170  1  0
168171  1  0
171172  1  0
171173  1  0
171174  1  0
174175  1  0
174176  1  0
174177  1  0
177178  1  0
177179  1  0
177180  1  0
180181  1  0
180182  1  0
180183  1  0
184185  1  0
184186  1  0
186187  1  6
186188  1  0
186190  1  0
188189  2  0
190191  1  0
190192  1  0
190193  1  0
193194  2  0
193196  1  0
194195  1  0
194198  1  0
196197  1  0
196200  2  0
198199  1  0
198202  2  0
200201  1  0
200202  1  0
202203  1  0
203204  1  0
205206  1  0
205207  1  0
207208  1  6
207209  1  0
207211  1  0
209210  2  0
211212  1  0
211213  1  0
211214  1  0
214215  1  0
214216  1  0
214217  1  0
217218  1  0
217219  1  0
217220  1  0
220221  1  0
220222  1  0
222223  2  0
222226  1  0
223224  1  0
223225  1  0
226227  1  0
226228  1  0
229230  1  0
229231  1  0
231232  1  1
231233  1  0
231235  1  0
233234  2  0
235236  1  0
235237  1  0
235238  1  0
238239  2  0
238241  1  0
239240  1  0
239243  1  0
241242  1  0
241245  2  0
243244  1  0
243247  2  0
245246  1  0
245247  1  0
247248  1  0
248249  1  0
M  RAD  8   1   2   5   2  13   2  39   2  55   2  59   2  71   2  75   2
M  RAD  8  90   2  94   2 106   2 110   2 122   2 147   2 162   2 188   2
M  CHG  2 180   1 223   1
M  RAD  4 205   2 209   2 229   2 233   2
M  END
$$$$

     RDKit          3D

251245  0  0  0  0  0  0  0  0999 V2000
    8.2390   15.7430  -10.2460 N   0  0  0  0  0  2  0  0  0  0  0  0
    8.4060   14.8450   -9.7480 H   0  0  0  0  0  0  0  0  0  0  0  0
    7.1270   16.5820   -9.8330 C   0  0  2  0  0  0  0  0  0  0  0  0
    6.5240   16.7530  -10.7240 H   0  0  0  0  0  0  0  0  0  0  0  0
    7.5010   17.9630   -9.3590 C   0  0  0  0  0  3  0  0  0  0  0  0
    8.3130   18.1090   -8.4540 O   0  0  0  0  0  0  0  0  0  0  0  0
    6.3630   15.8620   -8.7680 C   0  0  0  0  0  0  0  0  0  0  0  0
    7.0440   15.5910   -7.9610 H   0  0  0  0  0  0  0  0  0  0  0  0
    5.5850   16.5200   -8.3800 H   0  0  0  0  0  0  0  0  0  0  0  0
    5.7360   14.6350   -9.3040 C   0  0  0  0  0  0  0  0  0  0  0  0
    4.8520   14.7920  -10.1880 O   0  0  0  0  0  0  0  0  0  0  0  0
    6.1520   13.5130   -8.8840 O   0  0  0  0  0  0  0  0  0  0  0  0
    1.6580   16.8130  -11.9920 N   0  0  0  0  0  2  0  0  0  0  0  0
    2.3630   16.6600  -11.2430 H   0  0  0  0  0  0  0  0  0  0  0  0
    0.5750   15.8710  -12.1280 C   0  0  2  0  0  0  0  0  0  0  0  0
    0.1290   15.9910  -13.1150 H   0  0  0  0  0  0  0  0  0  0  0  0
   -0.5220   16.1130  -11.1130 C   0  0  0  0  0  0  0  0  0  0  0  0
   -0.2990   16.7340  -10.0760 O   0  0  0  0  0  0  0  0  0  0  0  0
    1.1300   14.4960  -11.9520 C   0  0  0  0  0  0  0  0  0  0  0  0
    0.3140   13.7740  -11.9180 H   0  0  0  0  0  0  0  0  0  0  0  0
    1.6970   14.4460  -11.0220 H   0  0  0  0  0  0  0  0  0  0  0  0
    1.9940   14.1960  -13.0610 O   0  0  0  0  0  0  0  0  0  0  0  0
    2.3660   13.2850  -12.9510 H   0  0  0  0  0  0  0  0  0  0  0  0
   -1.7070   15.5990  -11.3820 N   0  0  0  0  0  0  0  0  0  0  0  0
   -1.8300   15.0390  -12.2500 H   0  0  0  0  0  0  0  0  0  0  0  0
   -2.8500   15.7940  -10.4960 C   0  0  2  0  0  0  0  0  0  0  0  0
   -2.4940   15.6940   -9.4710 H   0  0  0  0  0  0  0  0  0  0  0  0
   -3.9360   14.7420  -10.7100 C   0  0  0  0  0  0  0  0  0  0  0  0
   -4.1170   14.2150  -11.8220 O   0  0  0  0  0  0  0  0  0  0  0  0
   -3.4310   17.1680  -10.7260 C   0  0  0  0  0  0  0  0  0  0  0  0
   -3.6970   17.2780  -11.7770 H   0  0  0  0  0  0  0  0  0  0  0  0
   -2.6920   17.9230  -10.4590 H   0  0  0  0  0  0  0  0  0  0  0  0
   -4.5930   17.3400   -9.9250 O   0  0  0  0  0  0  0  0  0  0  0  0
   -4.9690   18.2430  -10.0800 H   0  0  0  0  0  0  0  0  0  0  0  0
   -4.6520   14.4140   -9.6350 N   0  0  0  0  0  0  0  0  0  0  0  0
   -4.3590   14.7920   -8.7110 H   0  0  0  0  0  0  0  0  0  0  0  0
   -5.8320   13.5460   -9.6910 C   0  0  2  0  0  0  0  0  0  0  0  0
   -5.6450   12.7780  -10.4420 H   0  0  0  0  0  0  0  0  0  0  0  0
   -7.0770   14.3290  -10.1220 C   0  0  0  0  0  3  0  0  0  0  0  0
   -8.0250   13.7390  -10.5890 O   0  0  0  0  0  0  0  0  0  0  0  0
   -6.0610   12.8570   -8.3570 C   0  0  0  0  0  0  0  0  0  0  0  0
   -5.9730   13.6020   -7.5670 H   0  0  0  0  0  0  0  0  0  0  0  0
   -7.0700   12.4440   -8.3540 H   0  0  0  0  0  0  0  0  0  0  0  0
   -5.0730   11.7210   -8.0610 C   0  0  0  0  0  0  0  0  0  0  0  0
   -4.0720   11.8810   -7.1020 C   0  0  0  0  0  0  0  0  0  0  0  0
   -3.9860   12.8270   -6.5670 H   0  0  0  0  0  0  0  0  0  0  0  0
   -5.1740   10.4980   -8.7080 C   0  0  0  0  0  0  0  0  0  0  0  0
   -5.9560   10.3530   -9.4530 H   0  0  0  0  0  0  0  0  0  0  0  0
   -3.1820   10.8480   -6.8190 C   0  0  0  0  0  0  0  0  0  0  0  0
   -2.4060   10.9870   -6.0660 H   0  0  0  0  0  0  0  0  0  0  0  0
   -4.2920    9.4420   -8.4250 C   0  0  0  0  0  0  0  0  0  0  0  0
   -4.4060    8.4830   -8.9310 H   0  0  0  0  0  0  0  0  0  0  0  0
   -3.2860    9.6220   -7.5080 C   0  0  0  0  0  0  0  0  0  0  0  0
   -2.5720    8.8220   -7.3140 H   0  0  0  0  0  0  0  0  0  0  0  0
   -3.3140    5.0230  -13.0570 N   0  0  0  0  0  2  0  0  0  0  0  0
   -4.1400    5.6150  -12.8370 H   0  0  0  0  0  0  0  0  0  0  0  0
   -2.5170    4.4610  -11.9940 C   0  0  2  0  0  0  0  0  0  0  0  0
   -1.7250    3.8470  -12.4230 H   0  0  0  0  0  0  0  0  0  0  0  0
   -3.4380    3.6400  -11.1070 C   0  0  0  0  0  3  0  0  0  0  0  0
   -4.4710    4.1900  -10.6370 O   0  0  0  0  0  0  0  0  0  0  0  0
   -1.8540    5.5840  -11.1350 C   0  0  0  0  0  0  0  0  0  0  0  0
   -2.6490    6.2450  -10.7900 H   0  0  0  0  0  0  0  0  0  0  0  0
   -1.1450    4.9970   -9.9330 C   0  0  0  0  0  0  0  0  0  0  0  0
   -1.8650    4.4610   -9.3150 H   0  0  0  0  0  0  0  0  0  0  0  0
   -0.3700    4.3090  -10.2700 H   0  0  0  0  0  0  0  0  0  0  0  0
   -0.6920    5.8000   -9.3520 H   0  0  0  0  0  0  0  0  0  0  0  0
   -0.8790    6.3820  -11.9530 C   0  0  0  0  0  0  0  0  0  0  0  0
   -0.0980    5.7220  -12.3300 H   0  0  0  0  0  0  0  0  0  0  0  0
   -1.4020    6.8440  -12.7900 H   0  0  0  0  0  0  0  0  0  0  0  0
   -0.4320    7.1570  -11.3300 H   0  0  0  0  0  0  0  0  0  0  0  0
   -4.5210    2.0210   -7.7850 N   0  0  0  0  0  2  0  0  0  0  0  0
   -5.4600    2.1270   -8.2190 H   0  0  0  0  0  0  0  0  0  0  0  0
   -4.3760    2.2860   -6.3400 C   0  0  2  0  0  0  0  0  0  0  0  0
   -3.3700    1.9630   -6.0710 H   0  0  0  0  0  0  0  0  0  0  0  0
   -5.3740    1.4700   -5.5200 C   0  0  0  0  0  3  0  0  0  0  0  0
   -6.6090    1.7400   -5.5300 O   0  0  0  0  0  0  0  0  0  0  0  0
   -4.4620    3.8040   -5.9870 C   0  0  2  0  0  0  0  0  0  0  0  0
   -5.4400    4.1780   -6.2900 H   0  0  0  0  0  0  0  0  0  0  0  0
   -3.3750    4.5860   -6.7450 C   0  0  0  0  0  0  0  0  0  0  0  0
   -2.4260    4.4330   -6.2310 H   0  0  0  0  0  0  0  0  0  0  0  0
   -3.3090    4.1820   -7.7550 H   0  0  0  0  0  0  0  0  0  0  0  0
   -4.3050    4.0130   -4.4580 C   0  0  0  0  0  0  0  0  0  0  0  0
   -5.1000    3.4810   -3.9360 H   0  0  0  0  0  0  0  0  0  0  0  0
   -3.3370    3.6280   -4.1370 H   0  0  0  0  0  0  0  0  0  0  0  0
   -4.3670    5.0770   -4.2300 H   0  0  0  0  0  0  0  0  0  0  0  0
   -3.6210    6.0930   -6.8510 C   0  0  0  0  0  0  0  0  0  0  0  0
   -4.5590    6.2710   -7.3760 H   0  0  0  0  0  0  0  0  0  0  0  0
   -3.6760    6.5220   -5.8510 H   0  0  0  0  0  0  0  0  0  0  0  0
   -2.8020    6.5560   -7.4010 H   0  0  0  0  0  0  0  0  0  0  0  0
   -7.1030    4.9550  -11.2140 N   0  0  0  0  0  2  0  0  0  0  0  0
   -6.1220    4.6450  -11.0650 H   0  0  0  0  0  0  0  0  0  0  0  0
   -7.3690    6.3930  -11.2260 C   0  0  2  0  0  0  0  0  0  0  0  0
   -8.4260    6.5500  -11.4390 H   0  0  0  0  0  0  0  0  0  0  0  0
   -6.5510    7.1110  -12.3230 C   0  0  0  0  0  3  0  0  0  0  0  0
   -5.3670    6.8340  -12.4820 O   0  0  0  0  0  0  0  0  0  0  0  0
   -6.9990    6.9690   -9.8590 C   0  0  0  0  0  0  0  0  0  0  0  0
   -5.9460    6.7590   -9.6690 H   0  0  0  0  0  0  0  0  0  0  0  0
   -7.1550    8.0480   -9.8840 H   0  0  0  0  0  0  0  0  0  0  0  0
   -7.8100    6.3970   -8.7320 C   0  0  0  0  0  0  0  0  0  0  0  0
   -9.1120    6.7880   -8.4820 N   0  0  0  0  0  0  0  0  0  0  0  0
   -7.5200    5.4300   -7.8250 C   0  0  0  0  0  0  0  0  0  0  0  0
   -6.5730    4.9000   -7.7210 H   0  0  0  0  0  0  0  0  0  0  0  0
   -9.5840    6.0790   -7.4730 C   0  0  0  0  0  0  0  0  0  0  0  0
  -10.5840    6.1660   -7.0470 H   0  0  0  0  0  0  0  0  0  0  0  0
   -8.6430    5.2470   -7.0660 N   0  0  0  0  0  0  0  0  0  0  0  0
   -4.3430    9.9870  -13.8600 N   0  0  0  0  0  2  0  0  0  0  0  0
   -3.9430    9.2670  -14.4950 H   0  0  0  0  0  0  0  0  0  0  0  0
   -3.4660   11.0950  -13.4060 C   0  0  2  0  0  0  0  0  0  0  0  0
   -3.9980   11.6020  -12.6010 H   0  0  0  0  0  0  0  0  0  0  0  0
   -3.1980   12.0700  -14.5610 C   0  0  0  0  0  3  0  0  0  0  0  0
   -2.6940   11.6660  -15.6100 O   0  0  0  0  0  0  0  0  0  0  0  0
   -2.1230   10.5980  -12.8370 C   0  0  0  0  0  0  0  0  0  0  0  0
   -1.6160   10.0380  -13.6230 H   0  0  0  0  0  0  0  0  0  0  0  0
   -1.2160   11.7770  -12.4230 C   0  0  0  0  0  0  0  0  0  0  0  0
   -1.0140   12.4010  -13.2930 H   0  0  0  0  0  0  0  0  0  0  0  0
   -1.7190   12.3690  -11.6580 H   0  0  0  0  0  0  0  0  0  0  0  0
   -0.2780   11.3900  -12.0260 H   0  0  0  0  0  0  0  0  0  0  0  0
   -2.3600    9.6900  -11.6480 C   0  0  0  0  0  0  0  0  0  0  0  0
   -2.8940   10.2400  -10.8730 H   0  0  0  0  0  0  0  0  0  0  0  0
   -2.9540    8.8310  -11.9610 H   0  0  0  0  0  0  0  0  0  0  0  0
   -1.4020    9.3470  -11.2570 H   0  0  0  0  0  0  0  0  0  0  0  0
   10.6540   11.3050   -5.5760 N   0  0  0  0  0  2  0  0  0  0  0  0
   10.3920   12.2850   -5.8030 H   0  0  0  0  0  0  0  0  0  0  0  0
   10.0940   10.6720   -4.3490 C   0  0  2  0  0  0  0  0  0  0  0  0
   10.8680    9.9920   -3.9930 H   0  0  0  0  0  0  0  0  0  0  0  0
    8.8430    9.8410   -4.6350 C   0  0  0  0  0  0  0  0  0  0  0  0
    8.3760    9.1070   -3.7350 O   0  0  0  0  0  0  0  0  0  0  0  0
    9.8210   11.6790   -3.2540 C   0  0  0  0  0  0  0  0  0  0  0  0
   10.7510   12.1790   -2.9810 H   0  0  0  0  0  0  0  0  0  0  0  0
    9.1020   12.4160   -3.6110 H   0  0  0  0  0  0  0  0  0  0  0  0
    9.4140   11.1650   -2.3830 H   0  0  0  0  0  0  0  0  0  0  0  0
    8.3280    9.9240   -5.8760 N   0  0  0  0  0  0  0  0  0  0  0  0
    8.8050   10.5390   -6.5650 H   0  0  0  0  0  0  0  0  0  0  0  0
    7.1420    9.2010   -6.3060 C   0  0  2  0  0  0  0  0  0  0  0  0
    6.4000    9.3360   -5.5190 H   0  0  0  0  0  0  0  0  0  0  0  0
    7.4250    7.7530   -6.4980 C   0  0  0  0  0  0  0  0  0  0  0  0
    8.5700    7.2700   -6.4620 O   0  0  0  0  0  0  0  0  0  0  0  0
    6.6180    9.7450   -7.6390 C   0  0  0  0  0  0  0  0  0  0  0  0
    5.6190    9.3460   -7.8150 H   0  0  0  0  0  0  0  0  0  0  0  0
    7.2840    9.4210   -8.4390 H   0  0  0  0  0  0  0  0  0  0  0  0
    6.5530   11.1910   -7.6390 O   0  0  0  0  0  0  0  0  0  0  0  0
    6.2110   11.5050   -8.5140 H   0  0  0  0  0  0  0  0  0  0  0  0
    6.3550    7.0580   -6.8100 N   0  0  0  0  0  0  0  0  0  0  0  0
    5.4610    7.5640   -6.9720 H   0  0  0  0  0  0  0  0  0  0  0  0
    6.3700    5.6400   -6.9350 C   0  0  2  0  0  0  0  0  0  0  0  0
    7.1620    5.1570   -6.3640 H   0  0  0  0  0  0  0  0  0  0  0  0
    6.5790    5.3360   -8.4090 C   0  0  0  0  0  3  0  0  0  0  0  0
    6.0940    6.0730   -9.2600 O   0  0  0  0  0  0  0  0  0  0  0  0
    5.0220    5.1190   -6.4090 C   0  0  0  0  0  0  0  0  0  0  0  0
    4.2350    5.7010   -6.8870 H   0  0  0  0  0  0  0  0  0  0  0  0
    4.9330    4.0750   -6.7090 H   0  0  0  0  0  0  0  0  0  0  0  0
    4.7900    5.1880   -4.8740 C   0  0  0  0  0  0  0  0  0  0  0  0
    5.0100    6.2120   -4.5710 H   0  0  0  0  0  0  0  0  0  0  0  0
    3.3110    4.7880   -4.5700 C   0  0  0  0  0  0  0  0  0  0  0  0
    2.6380    5.4790   -5.0770 H   0  0  0  0  0  0  0  0  0  0  0  0
    3.1300    3.7740   -4.9260 H   0  0  0  0  0  0  0  0  0  0  0  0
    3.1370    4.8330   -3.4950 H   0  0  0  0  0  0  0  0  0  0  0  0
    5.7270    4.2640   -4.0560 C   0  0  0  0  0  0  0  0  0  0  0  0
    5.5710    3.2290   -4.3610 H   0  0  0  0  0  0  0  0  0  0  0  0
    6.7640    4.5460   -4.2400 H   0  0  0  0  0  0  0  0  0  0  0  0
    5.5030    4.3690   -2.9940 H   0  0  0  0  0  0  0  0  0  0  0  0
    5.3050    3.2970  -10.3550 N   0  0  0  0  0  2  0  0  0  0  0  0
    5.3190    3.2100   -9.3190 H   0  0  0  0  0  0  0  0  0  0  0  0
    4.1120    2.9140  -11.0930 C   0  0  2  0  0  0  0  0  0  0  0  0
    4.3770    2.2010  -11.8730 H   0  0  0  0  0  0  0  0  0  0  0  0
    3.5250    4.1710  -11.7290 C   0  0  0  0  0  0  0  0  0  0  0  0
    2.8290    4.0740  -12.7370 O   0  0  0  0  0  0  0  0  0  0  0  0
    3.0890    2.1810  -10.2000 C   0  0  0  0  0  0  0  0  0  0  0  0
    2.2390    1.8870  -10.8160 H   0  0  0  0  0  0  0  0  0  0  0  0
    3.5630    1.2900   -9.7890 H   0  0  0  0  0  0  0  0  0  0  0  0
    2.5850    3.0260   -9.0590 C   0  0  0  0  0  0  0  0  0  0  0  0
    3.2850    2.9380   -8.2280 H   0  0  0  0  0  0  0  0  0  0  0  0
    2.5440    4.0640   -9.3890 H   0  0  0  0  0  0  0  0  0  0  0  0
    1.2080    2.6210   -8.5730 C   0  0  0  0  0  0  0  0  0  0  0  0
    0.7530    3.4710   -8.0650 H   0  0  0  0  0  0  0  0  0  0  0  0
    0.6000    2.3470   -9.4350 H   0  0  0  0  0  0  0  0  0  0  0  0
    1.2480    1.4500   -7.6160 C   0  0  0  0  0  0  0  0  0  0  0  0
    2.1300    1.5540   -6.9850 H   0  0  0  0  0  0  0  0  0  0  0  0
    1.3270    0.5330   -8.2000 H   0  0  0  0  0  0  0  0  0  0  0  0
    0.0220    1.3380   -6.7120 N   0  0  0  0  0  4  0  0  0  0  0  0
   -0.0630    2.2000   -6.1370 H   0  0  0  0  0  0  0  0  0  0  0  0
   -0.8300    1.2250   -7.2980 H   0  0  0  0  0  0  0  0  0  0  0  0
    0.1270    0.5130   -6.0880 H   0  0  0  0  0  0  0  0  0  0  0  0
    3.8150    5.3320  -11.1570 N   0  0  0  0  0  0  0  0  0  0  0  0
    4.3440    5.3460  -10.2620 H   0  0  0  0  0  0  0  0  0  0  0  0
    3.4060    6.5700  -11.7600 C   0  0  2  0  0  0  0  0  0  0  0  0
    2.6010    6.3500  -12.4610 H   0  0  0  0  0  0  0  0  0  0  0  0
    4.5830    7.2000  -12.5340 C   0  0  0  0  0  3  0  0  0  0  0  0
    4.3900    7.6850  -13.6440 O   0  0  0  0  0  0  0  0  0  0  0  0
    2.8330    7.5740  -10.6990 C   0  0  0  0  0  0  0  0  0  0  0  0
    1.7520    7.4410  -10.6510 H   0  0  0  0  0  0  0  0  0  0  0  0
    3.2710    7.3350   -9.7300 H   0  0  0  0  0  0  0  0  0  0  0  0
    3.1220    9.0400  -11.0060 C   0  0  0  0  0  0  0  0  0  0  0  0
    2.4190    9.6990  -11.9770 C   0  0  0  0  0  0  0  0  0  0  0  0
    1.6340    9.1740  -12.5200 H   0  0  0  0  0  0  0  0  0  0  0  0
    4.1580    9.7400  -10.3510 C   0  0  0  0  0  0  0  0  0  0  0  0
    4.7460    9.2230   -9.5930 H   0  0  0  0  0  0  0  0  0  0  0  0
    2.7000   11.0760  -12.2930 C   0  0  0  0  0  0  0  0  0  0  0  0
    2.1060   11.5870  -13.0510 H   0  0  0  0  0  0  0  0  0  0  0  0
    4.4620   11.1120  -10.6520 C   0  0  0  0  0  0  0  0  0  0  0  0
    5.2550   11.6380  -10.1200 H   0  0  0  0  0  0  0  0  0  0  0  0
    3.7150   11.7570  -11.6450 C   0  0  0  0  0  0  0  0  0  0  0  0
    3.9630   13.0750  -12.0290 O   0  0  0  0  0  0  0  0  0  0  0  0
    3.3260   13.3360  -12.7410 H   0  0  0  0  0  0  0  0  0  0  0  0
   10.9780    6.3050   -4.9480 N   0  0  0  0  0  2  0  0  0  0  0  0
   10.1880    5.9880   -5.5450 H   0  0  0  0  0  0  0  0  0  0  0  0
   10.7200    6.5580   -3.5270 C   0  0  2  0  0  0  0  0  0  0  0  0
   10.9690    7.6020   -3.3390 H   0  0  0  0  0  0  0  0  0  0  0  0
   11.6250    5.7190   -2.6400 C   0  0  0  0  0  3  0  0  0  0  0  0
   12.2670    6.2920   -1.7970 O   0  0  0  0  0  0  0  0  0  0  0  0
    9.2040    6.4100   -3.1540 C   0  0  0  0  0  0  0  0  0  0  0  0
    8.6640    7.2090   -3.6620 H   0  0  0  0  0  0  0  0  0  0  0  0
    8.8680    5.4460   -3.5360 H   0  0  0  0  0  0  0  0  0  0  0  0
    8.8060    6.4750   -1.6050 C   0  0  0  0  0  0  0  0  0  0  0  0
    9.0730    5.5270   -1.1380 H   0  0  0  0  0  0  0  0  0  0  0  0
    9.3690    7.2810   -1.1350 H   0  0  0  0  0  0  0  0  0  0  0  0
    7.2710    6.7340   -1.3710 C   0  0  0  0  0  0  0  0  0  0  0  0
    6.9860    6.4380   -0.3620 H   0  0  0  0  0  0  0  0  0  0  0  0
    6.6770    6.1740   -2.0940 H   0  0  0  0  0  0  0  0  0  0  0  0
    7.0740    8.1750   -1.5550 N   0  0  0  0  0  0  0  0  0  0  0  0
    7.9010    8.7810   -1.3810 H   0  0  0  0  0  0  0  0  0  0  0  0
    5.9530    8.7950   -1.9200 C   0  0  0  0  0  0  0  0  0  0  0  0
    4.8300    8.1290   -2.1550 N   0  0  0  0  0  4  0  0  0  0  0  0
    4.8090    7.0940   -2.0560 H   0  0  0  0  0  0  0  0  0  0  0  0
    3.9710    8.6420   -2.4390 H   0  0  0  0  0  0  0  0  0  0  0  0
    5.9750   10.1110   -2.0680 N   0  0  0  0  0  0  0  0  0  0  0  0
    6.8550   10.6390   -1.9000 H   0  0  0  0  0  0  0  0  0  0  0  0
    5.1120   10.6170   -2.3520 H   0  0  0  0  0  0  0  0  0  0  0  0
   11.6800   13.6970    2.1500 N   0  0  0  0  0  2  0  0  0  0  0  0
   11.0060   14.3750    1.7400 H   0  0  0  0  0  0  0  0  0  0  0  0
   12.3750   12.7460    1.2760 C   0  0  2  0  0  0  0  0  0  0  0  0
   12.5890   11.8420    1.8460 H   0  0  0  0  0  0  0  0  0  0  0  0
   13.6730   13.4000    0.7880 C   0  0  0  0  0  3  0  0  0  0  0  0
   13.6690   14.3550    0.0170 O   0  0  0  0  0  0  0  0  0  0  0  0
   11.5200   12.3200    0.0890 C   0  0  0  0  0  0  0  0  0  0  0  0
   11.3570   13.1990   -0.5350 H   0  0  0  0  0  0  0  0  0  0  0  0
   12.0810   11.5750   -0.4740 H   0  0  0  0  0  0  0  0  0  0  0  0
   10.1640   11.7270    0.4160 C   0  0  0  0  0  0  0  0  0  0  0  0
   10.0310   10.3500    0.7370 C   0  0  0  0  0  0  0  0  0  0  0  0
   10.9170    9.7150    0.7680 H   0  0  0  0  0  0  0  0  0  0  0  0
    9.0060   12.5450    0.3790 C   0  0  0  0  0  0  0  0  0  0  0  0
    9.1020   13.6000    0.1210 H   0  0  0  0  0  0  0  0  0  0  0  0
    8.7740    9.8000    1.0140 C   0  0  0  0  0  0  0  0  0  0  0  0
    8.6750    8.7420    1.2580 H   0  0  0  0  0  0  0  0  0  0  0  0
    7.7410   12.0170    0.6690 C   0  0  0  0  0  0  0  0  0  0  0  0
    6.8570   12.6550    0.6610 H   0  0  0  0  0  0  0  0  0  0  0  0
    7.6340   10.6360    0.9730 C   0  0  0  0  0  0  0  0  0  0  0  0
    6.3730   10.1120    1.2340 O   0  0  0  0  0  0  0  0  0  0  0  0
    6.4530    9.1450    1.4290 H   0  0  0  0  0  0  0  0  0  0  0  0
    6.8140   13.4770   -8.2220 H   0  0  0  0  0  0  0  0  0  0  0  0
   -8.7350    4.5970   -6.3320 H   0  0  0  0  0  0  0  0  0  0  0  0
  1  2  1  0
  1  3  1  0
  3  4  1  6
  3  5  1  0
  3  7  1  0
  5  6  2  0
  7  8  1  0
  7  9  1  0
  7 10  1  0
 10 11  2  0
 10 12  1  0
 12250  1  0
 13 14  1  0
 13 15  1  0
 15 16  1  6
 15 17  1  0
 15 19  1  0
 17 18  2  0
 17 24  1  0
 19 20  1  0
 19 21  1  0
 19 22  1  0
 22 23  1  0
 24 25  1  0
 24 26  1  0
 26 27  1  1
 26 28  1  0
 26 30  1  0
 28 29  2  0
 28 35  1  0
 30 31  1  0
 30 32  1  0
 30 33  1  0
 33 34  1  0
 35 36  1  0
 35 37  1  0
 37 38  1  6
 37 39  1  0
 37 41  1  0
 39 40  2  0
 41 42  1  0
 41 43  1  0
 41 44  1  0
 44 45  2  0
 44 47  1  0
 45 46  1  0
 45 49  1  0
 47 48  1  0
 47 51  2  0
 49 50  1  0
 49 53  2  0
 51 52  1  0
 51 53  1  0
 53 54  1  0
 55 56  1  0
 55 57  1  0
 57 58  1  6
 57 59  1  0
 57 61  1  0
 59 60  2  0
 61 62  1  0
 61 63  1  0
 61 67  1  0
 63 64  1  0
 63 65  1  0
 63 66  1  0
 67 68  1  0
 67 69  1  0
 67 70  1  0
 71 72  1  0
 71 73  1  0
 73 74  1  1
 73 75  1  0
 73 77  1  0
 75 76  2  0
 77 78  1  6
 77 79  1  0
 77 82  1  0
 79 80  1  0
 79 81  1  0
 79 86  1  0
 82 83  1  0
 82 84  1  0
 82 85  1  0
 86 87  1  0
 86 88  1  0
 86 89  1  0
 90 91  1  0
 90 92  1  0
 92 93  1  6
 92 94  1  0
 92 96  1  0
 94 95  2  0
 96 97  1  0
 96 98  1  0
 96 99  1  0
 99100  1  0
 99101  2  0
100103  2  0
101102  1  0
101105  1  0
103104  1  0
103105  1  0
105251  1  0
106107  1  0
106108  1  0
108109  1  1
108110  1  0
108112  1  0
110111  2  0
112113  1  0
112114  1  0
112118  1  0
114115  1  0
114116  1  0
114117  1  0
118119  1  0
118120  1  0
118121  1  0
122123  1  0
122124  1  0
124125  1  1
124126  1  0
124128  1  0
126127  2  0
126132  1  0
128129  1  0
128130  1  0
128131  1  0
132133  1  0
132134  1  0
134135  1  1
134136  1  0
134138  1  0
136137  2  0
136143  1  0
138139  1  0
138140  1  0
138141  1  0
141142  1  0
143144  1  0
143145  1  0
145146  1  1
145147  1  0
145149  1  0
147148  2  0
149150  1  0
149151  1  0
149152  1  0
152153  1  0
152154  1  0
152158  1  0
154155  1  0
154156  1  0
154157  1  0
158159  1  0
158160  1  0
158161  1  0
162163  1  0
162164  1  0
164165  1  6
164166  1  0
164168  1  0
166167  2  0
166184  1  0
168169  1  0
168170  1  0
168171  1  0
171172  1  0
171173  1  0
171174  1  0
174175  1  0
174176  1  0
174177  1  0
177178  1  0
177179  1  0
177180  1  0
180181  1  0
180182  1  0
180183  1  0
184185  1  0
184186  1  0
186187  1  6
186188  1  0
186190  1  0
188189  2  0
190191  1  0
190192  1  0
190193  1  0
193194  2  0
193196  1  0
194195  1  0
194198  1  0
196197  1  0
196200  2  0
198199  1  0
198202  2  0
200201  1  0
200202  1  0
202203  1  0
203204  1  0
205206  1  0
205207  1  0
207208  1  6
207209  1  0
207211  1  0
209210  2  0
211212  1  0
211213  1  0
211214  1  0
214215  1  0
214216  1  0
214217  1  0
217218  1  0
217219  1  0
217220  1  0
220221  1  0
220222  1  0
222223  2  0
222226  1  0
223224  1  0
223225  1  0
226227  1  0
226228  1  0
229230  1  0
229231  1  0
231232  1  1
231233  1  0
231235  1  0
233234  2  0
235236  1  0
235237  1  0
235238  1  0
238239  2  0
238241  1  0
239240  1  0
239243  1  0
241242  1  0
241245  2  0
243244  1  0
243247  2  0
245246  1  0
245247  1  0
247248  1  0
248249  1  0
M  RAD  8   1   2   5   2  13   2  39   2  55   2  59   2  71   2  75   2
M  RAD  8  90   2  94   2 106   2 110   2 122   2 147   2 162   2 188   2
M  CHG  2 180   1 223   1
M  RAD  4 205   2 209   2 229   2 233   2
M  END
$$$$

     RDKit          3D

251245  0  0  0  0  0  0  0  0999 V2000
    8.2390   15.7430  -10.2460 N   0  0  0  0  0  2  0  0  0  0  0  0
    8.4060   14.8450   -9.7480 H   0  0  0  0  0  0  0  0  0  0  0  0
    7.1270   16.5820   -9.8330 C   0  0  2  0  0  0  0  0  0  0  0  0
    6.5240   16.7530  -10.7240 H   0  0  0  0  0  0  0  0  0  0  0  0
    7.5010   17.9630   -9.3590 C   0  0  0  0  0  3  0  0  0  0  0  0
    8.3130   18.1090   -8.4540 O   0  0  0  0  0  0  0  0  0  0  0  0
    6.3630   15.8620   -8.7680 C   0  0  0  0  0  0  0  0  0  0  0  0
    7.0440   15.5910   -7.9610 H   0  0  0  0  0  0  0  0  0  0  0  0
    5.5850   16.5200   -8.3800 H   0  0  0  0  0  0  0  0  0  0  0  0
    5.7360   14.6350   -9.3040 C   0  0  0  0  0  0  0  0  0  0  0  0
    4.8520   14.7920  -10.1880 O   0  0  0  0  0  0  0  0  0  0  0  0
    6.1520   13.5130   -8.8840 O   0  0  0  0  0  0  0  0  0  0  0  0
    1.6580   16.8130  -11.9920 N   0  0  0  0  0  2  0  0  0  0  0  0
    2.3630   16.6600  -11.2430 H   0  0  0  0  0  0  0  0  0  0  0  0
    0.5750   15.8710  -12.1280 C   0  0  2  0  0  0  0  0  0  0  0  0
    0.1290   15.9910  -13.1150 H   0  0  0  0  0  0  0  0  0  0  0  0
   -0.5220   16.1130  -11.1130 C   0  0  0  0  0  0  0  0  0  0  0  0
   -0.2990   16.7340  -10.0760 O   0  0  0  0  0  0  0  0  0  0  0  0
    1.1300   14.4960  -11.9520 C   0  0  0  0  0  0  0  0  0  0  0  0
    0.3140   13.7740  -11.9180 H   0  0  0  0  0  0  0  0  0  0  0  0
    1.6970   14.4460  -11.0220 H   0  0  0  0  0  0  0  0  0  0  0  0
    1.9940   14.1960  -13.0610 O   0  0  0  0  0  0  0  0  0  0  0  0
    2.3660   13.2850  -12.9510 H   0  0  0  0  0  0  0  0  0  0  0  0
   -1.7070   15.5990  -11.3820 N   0  0  0  0  0  0  0  0  0  0  0  0
   -1.8300   15.0390  -12.2500 H   0  0  0  0  0  0  0  0  0  0  0  0
   -2.8500   15.7940  -10.4960 C   0  0  2  0  0  0  0  0  0  0  0  0
   -2.4940   15.6940   -9.4710 H   0  0  0  0  0  0  0  0  0  0  0  0
   -3.9360   14.7420  -10.7100 C   0  0  0  0  0  0  0  0  0  0  0  0
   -4.1170   14.2150  -11.8220 O   0  0  0  0  0  0  0  0  0  0  0  0
   -3.4310   17.1680  -10.7260 C   0  0  0  0  0  0  0  0  0  0  0  0
   -3.6970   17.2780  -11.7770 H   0  0  0  0  0  0  0  0  0  0  0  0
   -2.6920   17.9230  -10.4590 H   0  0  0  0  0  0  0  0  0  0  0  0
   -4.5930   17.3400   -9.9250 O   0  0  0  0  0  0  0  0  0  0  0  0
   -4.9690   18.2430  -10.0800 H   0  0  0  0  0  0  0  0  0  0  0  0
   -4.6520   14.4140   -9.6350 N   0  0  0  0  0  0  0  0  0  0  0  0
   -4.3590   14.7920   -8.7110 H   0  0  0  0  0  0  0  0  0  0  0  0
   -5.8320   13.5460   -9.6910 C   0  0  2  0  0  0  0  0  0  0  0  0
   -5.6450   12.7780  -10.4420 H   0  0  0  0  0  0  0  0  0  0  0  0
   -7.0770   14.3290  -10.1220 C   0  0  0  0  0  3  0  0  0  0  0  0
   -8.0250   13.7390  -10.5890 O   0  0  0  0  0  0  0  0  0  0  0  0
   -6.0610   12.8570   -8.3570 C   0  0  0  0  0  0  0  0  0  0  0  0
   -5.9730   13.6020   -7.5670 H   0  0  0  0  0  0  0  0  0  0  0  0
   -7.0700   12.4440   -8.3540 H   0  0  0  0  0  0  0  0  0  0  0  0
   -5.0730   11.7210   -8.0610 C   0  0  0  0  0  0  0  0  0  0  0  0
   -4.0720   11.8810   -7.1020 C   0  0  0  0  0  0  0  0  0  0  0  0
   -3.9860   12.8270   -6.5670 H   0  0  0  0  0  0  0  0  0  0  0  0
   -5.1740   10.4980   -8.7080 C   0  0  0  0  0  0  0  0  0  0  0  0
   -5.9560   10.3530   -9.4530 H   0  0  0  0  0  0  0  0  0  0  0  0
   -3.1820   10.8480   -6.8190 C   0  0  0  0  0  0  0  0  0  0  0  0
   -2.4060   10.9870   -6.0660 H   0  0  0  0  0  0  0  0  0  0  0  0
   -4.2920    9.4420   -8.4250 C   0  0  0  0  0  0  0  0  0  0  0  0
   -4.4060    8.4830   -8.9310 H   0  0  0  0  0  0  0  0  0  0  0  0
   -3.2860    9.6220   -7.5080 C   0  0  0  0  0  0  0  0  0  0  0  0
   -2.5720    8.8220   -7.3140 H   0  0  0  0  0  0  0  0  0  0  0  0
   -3.3140    5.0230  -13.0570 N   0  0  0  0  0  2  0  0  0  0  0  0
   -4.1400    5.6150  -12.8370 H   0  0  0  0  0  0  0  0  0  0  0  0
   -2.5170    4.4610  -11.9940 C   0  0  2  0  0  0  0  0  0  0  0  0
   -1.7250    3.8470  -12.4230 H   0  0  0  0  0  0  0  0  0  0  0  0
   -3.4380    3.6400  -11.1070 C   0  0  0  0  0  3  0  0  0  0  0  0
   -4.4710    4.1900  -10.6370 O   0  0  0  0  0  0  0  0  0  0  0  0
   -1.8540    5.5840  -11.1350 C   0  0  0  0  0  0  0  0  0  0  0  0
   -2.6490    6.2450  -10.7900 H   0  0  0  0  0  0  0  0  0  0  0  0
   -1.1450    4.9970   -9.9330 C   0  0  0  0  0  0  0  0  0  0  0  0
   -1.8650    4.4610   -9.3150 H   0  0  0  0  0  0  0  0  0  0  0  0
   -0.3700    4.3090  -10.2700 H   0  0  0  0  0  0  0  0  0  0  0  0
   -0.6920    5.8000   -9.3520 H   0  0  0  0  0  0  0  0  0  0  0  0
   -0.8790    6.3820  -11.9530 C   0  0  0  0  0  0  0  0  0  0  0  0
   -0.0980    5.7220  -12.3300 H   0  0  0  0  0  0  0  0  0  0  0  0
   -1.4020    6.8440  -12.7900 H   0  0  0  0  0  0  0  0  0  0  0  0
   -0.4320    7.1570  -11.3300 H   0  0  0  0  0  0  0  0  0  0  0  0
   -4.5210    2.0210   -7.7850 N   0  0  0  0  0  2  0  0  0  0  0  0
   -5.4600    2.1270   -8.2190 H   0  0  0  0  0  0  0  0  0  0  0  0
   -4.3760    2.2860   -6.3400 C   0  0  2  0  0  0  0  0  0  0  0  0
   -3.3700    1.9630   -6.0710 H   0  0  0  0  0  0  0  0  0  0  0  0
   -5.3740    1.4700   -5.5200 C   0  0  0  0  0  3  0  0  0  0  0  0
   -6.6090    1.7400   -5.5300 O   0  0  0  0  0  0  0  0  0  0  0  0
   -4.4620    3.8040   -5.9870 C   0  0  2  0  0  0  0  0  0  0  0  0
   -5.4400    4.1780   -6.2900 H   0  0  0  0  0  0  0  0  0  0  0  0
   -3.3750    4.5860   -6.7450 C   0  0  0  0  0  0  0  0  0  0  0  0
   -2.4260    4.4330   -6.2310 H   0  0  0  0  0  0  0  0  0  0  0  0
   -3.3090    4.1820   -7.7550 H   0  0  0  0  0  0  0  0  0  0  0  0
   -4.3050    4.0130   -4.4580 C   0  0  0  0  0  0  0  0  0  0  0  0
   -5.1000    3.4810   -3.9360 H   0  0  0  0  0  0  0  0  0  0  0  0
   -3.3370    3.6280   -4.1370 H   0  0  0  0  0  0  0  0  0  0  0  0
   -4.3670    5.0770   -4.2300 H   0  0  0  0  0  0  0  0  0  0  0  0
   -3.6210    6.0930   -6.8510 C   0  0  0  0  0  0  0  0  0  0  0  0
   -4.5590    6.2710   -7.3760 H   0  0  0  0  0  0  0  0  0  0  0  0
   -3.6760    6.5220   -5.8510 H   0  0  0  0  0  0  0  0  0  0  0  0
   -2.8020    6.5560   -7.4010 H   0  0  0  0  0  0  0  0  0  0  0  0
   -7.1030    4.9550  -11.2140 N   0  0  0  0  0  2  0  0  0  0  0  0
   -6.1220    4.6450  -11.0650 H   0  0  0  0  0  0  0  0  0  0  0  0
   -7.3690    6.3930  -11.2260 C   0  0  2  0  0  0  0  0  0  0  0  0
   -8.4260    6.5500  -11.4390 H   0  0  0  0  0  0  0  0  0  0  0  0
   -6.5510    7.1110  -12.3230 C   0  0  0  0  0  3  0  0  0  0  0  0
   -5.3670    6.8340  -12.4820 O   0  0  0  0  0  0  0  0  0  0  0  0
   -6.9990    6.9690   -9.8590 C   0  0  0  0  0  0  0  0  0  0  0  0
   -5.9460    6.7590   -9.6690 H   0  0  0  0  0  0  0  0  0  0  0  0
   -7.1550    8.0480   -9.8840 H   0  0  0  0  0  0  0  0  0  0  0  0
   -7.8100    6.3970   -8.7320 C   0  0  0  0  0  0  0  0  0  0  0  0
   -9.1120    6.7880   -8.4820 N   0  0  0  0  0  0  0  0  0  0  0  0
   -7.5200    5.4300   -7.8250 C   0  0  0  0  0  0  0  0  0  0  0  0
   -6.5730    4.9000   -7.7210 H   0  0  0  0  0  0  0  0  0  0  0  0
   -9.5840    6.0790   -7.4730 C   0  0  0  0  0  0  0  0  0  0  0  0
  -10.5840    6.1660   -7.0470 H   0  0  0  0  0  0  0  0  0  0  0  0
   -8.6430    5.2470   -7.0660 N   0  0  0  0  0  0  0  0  0  0  0  0
   -4.3430    9.9870  -13.8600 N   0  0  0  0  0  2  0  0  0  0  0  0
   -3.9430    9.2670  -14.4950 H   0  0  0  0  0  0  0  0  0  0  0  0
   -3.4660   11.0950  -13.4060 C   0  0  2  0  0  0  0  0  0  0  0  0
   -3.9980   11.6020  -12.6010 H   0  0  0  0  0  0  0  0  0  0  0  0
   -3.1980   12.0700  -14.5610 C   0  0  0  0  0  3  0  0  0  0  0  0
   -2.6940   11.6660  -15.6100 O   0  0  0  0  0  0  0  0  0  0  0  0
   -2.1230   10.5980  -12.8370 C   0  0  0  0  0  0  0  0  0  0  0  0
   -1.6160   10.0380  -13.6230 H   0  0  0  0  0  0  0  0  0  0  0  0
   -1.2160   11.7770  -12.4230 C   0  0  0  0  0  0  0  0  0  0  0  0
   -1.0140   12.4010  -13.2930 H   0  0  0  0  0  0  0  0  0  0  0  0
   -1.7190   12.3690  -11.6580 H   0  0  0  0  0  0  0  0  0  0  0  0
   -0.2780   11.3900  -12.0260 H   0  0  0  0  0  0  0  0  0  0  0  0
   -2.3600    9.6900  -11.6480 C   0  0  0  0  0  0  0  0  0  0  0  0
   -2.8940   10.2400  -10.8730 H   0  0  0  0  0  0  0  0  0  0  0  0
   -2.9540    8.8310  -11.9610 H   0  0  0  0  0  0  0  0  0  0  0  0
   -1.4020    9.3470  -11.2570 H   0  0  0  0  0  0  0  0  0  0  0  0
   10.6540   11.3050   -5.5760 N   0  0  0  0  0  2  0  0  0  0  0  0
   10.3920   12.2850   -5.8030 H   0  0  0  0  0  0  0  0  0  0  0  0
   10.0940   10.6720   -4.3490 C   0  0  2  0  0  0  0  0  0  0  0  0
   10.8680    9.9920   -3.9930 H   0  0  0  0  0  0  0  0  0  0  0  0
    8.8430    9.8410   -4.6350 C   0  0  0  0  0  0  0  0  0  0  0  0
    8.3760    9.1070   -3.7350 O   0  0  0  0  0  0  0  0  0  0  0  0
    9.8210   11.6790   -3.2540 C   0  0  0  0  0  0  0  0  0  0  0  0
   10.7510   12.1790   -2.9810 H   0  0  0  0  0  0  0  0  0  0  0  0
    9.1020   12.4160   -3.6110 H   0  0  0  0  0  0  0  0  0  0  0  0
    9.4140   11.1650   -2.3830 H   0  0  0  0  0  0  0  0  0  0  0  0
    8.3280    9.9240   -5.8760 N   0  0  0  0  0  0  0  0  0  0  0  0
    8.8050   10.5390   -6.5650 H   0  0  0  0  0  0  0  0  0  0  0  0
    7.1420    9.2010   -6.3060 C   0  0  2  0  0  0  0  0  0  0  0  0
    6.4000    9.3360   -5.5190 H   0  0  0  0  0  0  0  0  0  0  0  0
    7.4250    7.7530   -6.4980 C   0  0  0  0  0  0  0  0  0  0  0  0
    8.5700    7.2700   -6.4620 O   0  0  0  0  0  0  0  0  0  0  0  0
    6.6180    9.7450   -7.6390 C   0  0  0  0  0  0  0  0  0  0  0  0
    5.6190    9.3460   -7.8150 H   0  0  0  0  0  0  0  0  0  0  0  0
    7.2840    9.4210   -8.4390 H   0  0  0  0  0  0  0  0  0  0  0  0
    6.5530   11.1910   -7.6390 O   0  0  0  0  0  0  0  0  0  0  0  0
    6.2110   11.5050   -8.5140 H   0  0  0  0  0  0  0  0  0  0  0  0
    6.3550    7.0580   -6.8100 N   0  0  0  0  0  0  0  0  0  0  0  0
    5.4610    7.5640   -6.9720 H   0  0  0  0  0  0  0  0  0  0  0  0
    6.3700    5.6400   -6.9350 C   0  0  2  0  0  0  0  0  0  0  0  0
    7.1620    5.1570   -6.3640 H   0  0  0  0  0  0  0  0  0  0  0  0
    6.5790    5.3360   -8.4090 C   0  0  0  0  0  3  0  0  0  0  0  0
    6.0940    6.0730   -9.2600 O   0  0  0  0  0  0  0  0  0  0  0  0
    5.0220    5.1190   -6.4090 C   0  0  0  0  0  0  0  0  0  0  0  0
    4.2350    5.7010   -6.8870 H   0  0  0  0  0  0  0  0  0  0  0  0
    4.9330    4.0750   -6.7090 H   0  0  0  0  0  0  0  0  0  0  0  0
    4.7900    5.1880   -4.8740 C   0  0  0  0  0  0  0  0  0  0  0  0
    5.0100    6.2120   -4.5710 H   0  0  0  0  0  0  0  0  0  0  0  0
    3.3110    4.7880   -4.5700 C   0  0  0  0  0  0  0  0  0  0  0  0
    2.6380    5.4790   -5.0770 H   0  0  0  0  0  0  0  0  0  0  0  0
    3.1300    3.7740   -4.9260 H   0  0  0  0  0  0  0  0  0  0  0  0
    3.1370    4.8330   -3.4950 H   0  0  0  0  0  0  0  0  0  0  0  0
    5.7270    4.2640   -4.0560 C   0  0  0  0  0  0  0  0  0  0  0  0
    5.5710    3.2290   -4.3610 H   0  0  0  0  0  0  0  0  0  0  0  0
    6.7640    4.5460   -4.2400 H   0  0  0  0  0  0  0  0  0  0  0  0
    5.5030    4.3690   -2.9940 H   0  0  0  0  0  0  0  0  0  0  0  0
    5.3050    3.2970  -10.3550 N   0  0  0  0  0  2  0  0  0  0  0  0
    5.3190    3.2100   -9.3190 H   0  0  0  0  0  0  0  0  0  0  0  0
    4.1120    2.9140  -11.0930 C   0  0  2  0  0  0  0  0  0  0  0  0
    4.3770    2.2010  -11.8730 H   0  0  0  0  0  0  0  0  0  0  0  0
    3.5250    4.1710  -11.7290 C   0  0  0  0  0  0  0  0  0  0  0  0
    2.8290    4.0740  -12.7370 O   0  0  0  0  0  0  0  0  0  0  0  0
    3.0890    2.1810  -10.2000 C   0  0  0  0  0  0  0  0  0  0  0  0
    2.2390    1.8870  -10.8160 H   0  0  0  0  0  0  0  0  0  0  0  0
    3.5630    1.2900   -9.7890 H   0  0  0  0  0  0  0  0  0  0  0  0
    2.5850    3.0260   -9.0590 C   0  0  0  0  0  0  0  0  0  0  0  0
    3.2850    2.9380   -8.2280 H   0  0  0  0  0  0  0  0  0  0  0  0
    2.5440    4.0640   -9.3890 H   0  0  0  0  0  0  0  0  0  0  0  0
    1.2080    2.6210   -8.5730 C   0  0  0  0  0  0  0  0  0  0  0  0
    0.7530    3.4710   -8.0650 H   0  0  0  0  0  0  0  0  0  0  0  0
    0.6000    2.3470   -9.4350 H   0  0  0  0  0  0  0  0  0  0  0  0
    1.2480    1.4500   -7.6160 C   0  0  0  0  0  0  0  0  0  0  0  0
    2.1300    1.5540   -6.9850 H   0  0  0  0  0  0  0  0  0  0  0  0
    1.3270    0.5330   -8.2000 H   0  0  0  0  0  0  0  0  0  0  0  0
    0.0220    1.3380   -6.7120 N   0  0  0  0  0  4  0  0  0  0  0  0
   -0.0630    2.2000   -6.1370 H   0  0  0  0  0  0  0  0  0  0  0  0
   -0.8300    1.2250   -7.2980 H   0  0  0  0  0  0  0  0  0  0  0  0
    0.1270    0.5130   -6.0880 H   0  0  0  0  0  0  0  0  0  0  0  0
    3.8150    5.3320  -11.1570 N   0  0  0  0  0  0  0  0  0  0  0  0
    4.3440    5.3460  -10.2620 H   0  0  0  0  0  0  0  0  0  0  0  0
    3.4060    6.5700  -11.7600 C   0  0  2  0  0  0  0  0  0  0  0  0
    2.6010    6.3500  -12.4610 H   0  0  0  0  0  0  0  0  0  0  0  0
    4.5830    7.2000  -12.5340 C   0  0  0  0  0  3  0  0  0  0  0  0
    4.3900    7.6850  -13.6440 O   0  0  0  0  0  0  0  0  0  0  0  0
    2.8330    7.5740  -10.6990 C   0  0  0  0  0  0  0  0  0  0  0  0
    1.7520    7.4410  -10.6510 H   0  0  0  0  0  0  0  0  0  0  0  0
    3.2710    7.3350   -9.7300 H   0  0  0  0  0  0  0  0  0  0  0  0
    3.1220    9.0400  -11.0060 C   0  0  0  0  0  0  0  0  0  0  0  0
    2.4190    9.6990  -11.9770 C   0  0  0  0  0  0  0  0  0  0  0  0
    1.6340    9.1740  -12.5200 H   0  0  0  0  0  0  0  0  0  0  0  0
    4.1580    9.7400  -10.3510 C   0  0  0  0  0  0  0  0  0  0  0  0
    4.7460    9.2230   -9.5930 H   0  0  0  0  0  0  0  0  0  0  0  0
    2.7000   11.0760  -12.2930 C   0  0  0  0  0  0  0  0  0  0  0  0
    2.1060   11.5870  -13.0510 H   0  0  0  0  0  0  0  0  0  0  0  0
    4.4620   11.1120  -10.6520 C   0  0  0  0  0  0  0  0  0  0  0  0
    5.2550   11.6380  -10.1200 H   0  0  0  0  0  0  0  0  0  0  0  0
    3.7150   11.7570  -11.6450 C   0  0  0  0  0  0  0  0  0  0  0  0
    3.9630   13.0750  -12.0290 O   0  0  0  0  0  0  0  0  0  0  0  0
    3.3260   13.3360  -12.7410 H   0  0  0  0  0  0  0  0  0  0  0  0
   10.9780    6.3050   -4.9480 N   0  0  0  0  0  2  0  0  0  0  0  0
   10.1880    5.9880   -5.5450 H   0  0  0  0  0  0  0  0  0  0  0  0
   10.7200    6.5580   -3.5270 C   0  0  2  0  0  0  0  0  0  0  0  0
   10.9690    7.6020   -3.3390 H   0  0  0  0  0  0  0  0  0  0  0  0
   11.6250    5.7190   -2.6400 C   0  0  0  0  0  3  0  0  0  0  0  0
   12.2670    6.2920   -1.7970 O   0  0  0  0  0  0  0  0  0  0  0  0
    9.2040    6.4100   -3.1540 C   0  0  0  0  0  0  0  0  0  0  0  0
    8.6640    7.2090   -3.6620 H   0  0  0  0  0  0  0  0  0  0  0  0
    8.8680    5.4460   -3.5360 H   0  0  0  0  0  0  0  0  0  0  0  0
    8.8060    6.4750   -1.6050 C   0  0  0  0  0  0  0  0  0  0  0  0
    9.0730    5.5270   -1.1380 H   0  0  0  0  0  0  0  0  0  0  0  0
    9.3690    7.2810   -1.1350 H   0  0  0  0  0  0  0  0  0  0  0  0
    7.2710    6.7340   -1.3710 C   0  0  0  0  0  0  0  0  0  0  0  0
    6.9860    6.4380   -0.3620 H   0  0  0  0  0  0  0  0  0  0  0  0
    6.6770    6.1740   -2.0940 H   0  0  0  0  0  0  0  0  0  0  0  0
    7.0740    8.1750   -1.5550 N   0  0  0  0  0  0  0  0  0  0  0  0
    7.9010    8.7810   -1.3810 H   0  0  0  0  0  0  0  0  0  0  0  0
    5.9530    8.7950   -1.9200 C   0  0  0  0  0  0  0  0  0  0  0  0
    4.8300    8.1290   -2.1550 N   0  0  0  0  0  4  0  0  0  0  0  0
    4.8090    7.0940   -2.0560 H   0  0  0  0  0  0  0  0  0  0  0  0
    3.9710    8.6420   -2.4390 H   0  0  0  0  0  0  0  0  0  0  0  0
    5.9750   10.1110   -2.0680 N   0  0  0  0  0  0  0  0  0  0  0  0
    6.8550   10.6390   -1.9000 H   0  0  0  0  0  0  0  0  0  0  0  0
    5.1120   10.6170   -2.3520 H   0  0  0  0  0  0  0  0  0  0  0  0
   11.6800   13.6970    2.1500 N   0  0  0  0  0  2  0  0  0  0  0  0
   11.0060   14.3750    1.7400 H   0  0  0  0  0  0  0  0  0  0  0  0
   12.3750   12.7460    1.2760 C   0  0  2  0  0  0  0  0  0  0  0  0
   12.5890   11.8420    1.8460 H   0  0  0  0  0  0  0  0  0  0  0  0
   13.6730   13.4000    0.7880 C   0  0  0  0  0  3  0  0  0  0  0  0
   13.6690   14.3550    0.0170 O   0  0  0  0  0  0  0  0  0  0  0  0
   11.5200   12.3200    0.0890 C   0  0  0  0  0  0  0  0  0  0  0  0
   11.3570   13.1990   -0.5350 H   0  0  0  0  0  0  0  0  0  0  0  0
   12.0810   11.5750   -0.4740 H   0  0  0  0  0  0  0  0  0  0  0  0
   10.1640   11.7270    0.4160 C   0  0  0  0  0  0  0  0  0  0  0  0
   10.0310   10.3500    0.7370 C   0  0  0  0  0  0  0  0  0  0  0  0
   10.9170    9.7150    0.7680 H   0  0  0  0  0  0  0  0  0  0  0  0
    9.0060   12.5450    0.3790 C   0  0  0  0  0  0  0  0  0  0  0  0
    9.1020   13.6000    0.1210 H   0  0  0  0  0  0  0  0  0  0  0  0
    8.7740    9.8000    1.0140 C   0  0  0  0  0  0  0  0  0  0  0  0
    8.6750    8.7420    1.2580 H   0  0  0  0  0  0  0  0  0  0  0  0
    7.7410   12.0170    0.6690 C   0  0  0  0  0  0  0  0  0  0  0  0
    6.8570   12.6550    0.6610 H   0  0  0  0  0  0  0  0  0  0  0  0
    7.6340   10.6360    0.9730 C   0  0  0  0  0  0  0  0  0  0  0  0
    6.3730   10.1120    1.2340 O   0  0  0  0  0  0  0  0  0  0  0  0
    6.4530    9.1450    1.4290 H   0  0  0  0  0  0  0  0  0  0  0  0
    6.8140   13.4770   -8.2220 H   0  0  0  0  0  0  0  0  0  0  0  0
   -8.7350    4.5970   -6.3320 H   0  0  0  0  0  0  0  0  0  0  0  0
  1  2  1  0
  1  3  1  0
  3  4  1  6
  3  5  1  0
  3  7  1  0
  5  6  2  0
  7  8  1  0
  7  9  1  0
  7 10  1  0
 10 11  2  0
 10 12  1  0
 12250  1  0
 13 14  1  0
 13 15  1  0
 15 16  1  6
 15 17  1  0
 15 19  1  0
 17 18  2  0
 17 24  1  0
 19 20  1  0
 19 21  1  0
 19 22  1  0
 22 23  1  0
 24 25  1  0
 24 26  1  0
 26 27  1  1
 26 28  1  0
 26 30  1  0
 28 29  2  0
 28 35  1  0
 30 31  1  0
 30 32  1  0
 30 33  1  0
 33 34  1  0
 35 36  1  0
 35 37  1  0
 37 38  1  6
 37 39  1  0
 37 41  1  0
 39 40  2  0
 41 42  1  0
 41 43  1  0
 41 44  1  0
 44 45  2  0
 44 47  1  0
 45 46  1  0
 45 49  1  0
 47 48  1  0
 47 51  2  0
 49 50  1  0
 49 53  2  0
 51 52  1  0
 51 53  1  0
 53 54  1  0
 55 56  1  0
 55 57  1  0
 57 58  1  6
 57 59  1  0
 57 61  1  0
 59 60  2  0
 61 62  1  0
 61 63  1  0
 61 67  1  0
 63 64  1  0
 63 65  1  0
 63 66  1  0
 67 68  1  0
 67 69  1  0
 67 70  1  0
 71 72  1  0
 71 73  1  0
 73 74  1  1
 73 75  1  0
 73 77  1  0
 75 76  2  0
 77 78  1  6
 77 79  1  0
 77 82  1  0
 79 80  1  0
 79 81  1  0
 79 86  1  0
 82 83  1  0
 82 84  1  0
 82 85  1  0
 86 87  1  0
 86 88  1  0
 86 89  1  0
 90 91  1  0
 90 92  1  0
 92 93  1  6
 92 94  1  0
 92 96  1  0
 94 95  2  0
 96 97  1  0
 96 98  1  0
 96 99  1  0
 99100  1  0
 99101  2  0
100103  2  0
101102  1  0
101105  1  0
103104  1  0
103105  1  0
105251  1  0
106107  1  0
106108  1  0
108109  1  1
108110  1  0
108112  1  0
110111  2  0
112113  1  0
112114  1  0
112118  1  0
114115  1  0
114116  1  0
114117  1  0
118119  1  0
118120  1  0
118121  1  0
122123  1  0
122124  1  0
124125  1  1
124126  1  0
124128  1  0
126127  2  0
126132  1  0
128129  1  0
128130  1  0
128131  1  0
132133  1  0
132134  1  0
134135  1  1
134136  1  0
134138  1  0
136137  2  0
136143  1  0
138139  1  0
138140  1  0
138141  1  0
141142  1  0
143144  1  0
143145  1  0
145146  1  1
145147  1  0
145149  1  0
147148  2  0
149150  1  0
149151  1  0
149152  1  0
152153  1  0
152154  1  0
152158  1  0
154155  1  0
154156  1  0
154157  1  0
158159  1  0
158160  1  0
158161  1  0
162163  1  0
162164  1  0
164165  1  6
164166  1  0
164168  1  0
166167  2  0
166184  1  0
168169  1  0
168170  1  0
168171  1  0
171172  1  0
171173  1  0
171174  1  0
174175  1  0
174176  1  0
174177  1  0
177178  1  0
177179  1  0
177180  1  0
180181  1  0
180182  1  0
180183  1  0
184185  1  0
184186  1  0
186187  1  6
186188  1  0
186190  1  0
188189  2  0
190191  1  0
190192  1  0
190193  1  0
193194  2  0
193196  1  0
194195  1  0
194198  1  0
196197  1  0
196200  2  0
198199  1  0
198202  2  0
200201  1  0
200202  1  0
202203  1  0
203204  1  0
205206  1  0
205207  1  0
207208  1  6
207209  1  0
207211  1  0
209210  2  0
211212  1  0
211213  1  0
211214  1  0
214215  1  0
214216  1  0
214217  1  0
217218  1  0
217219  1  0
217220  1  0
220221  1  0
220222  1  0
222223  2  0
222226  1  0
223224  1  0
223225  1  0
226227  1  0
226228  1  0
229230  1  0
229231  1  0
231232  1  1
231233  1  0
231235  1  0
233234  2  0
235236  1  0
235237  1  0
235238  1  0
238239  2  0
238241  1  0
239240  1  0
239243  1  0
241242  1  0
241245  2  0
243244  1  0
243247  2  0
245246  1  0
245247  1  0
247248  1  0
248249  1  0
M  RAD  8   1   2   5   2  13   2  39   2  55   2  59   2  71   2  75   2
M  RAD  8  90   2  94   2 106   2 110   2 122   2 147   2 162   2 188   2
M  CHG  2 180   1 223   1
M  RAD  4 205   2 209   2 229   2 233   2
M  END
$$$$

     RDKit          3D

251245  0  0  0  0  0  0  0  0999 V2000
    8.2390   15.7430  -10.2460 N   0  0  0  0  0  2  0  0  0  0  0  0
    8.4060   14.8450   -9.7480 H   0  0  0  0  0  0  0  0  0  0  0  0
    7.1270   16.5820   -9.8330 C   0  0  2  0  0  0  0  0  0  0  0  0
    6.5240   16.7530  -10.7240 H   0  0  0  0  0  0  0  0  0  0  0  0
    7.5010   17.9630   -9.3590 C   0  0  0  0  0  3  0  0  0  0  0  0
    8.3130   18.1090   -8.4540 O   0  0  0  0  0  0  0  0  0  0  0  0
    6.3630   15.8620   -8.7680 C   0  0  0  0  0  0  0  0  0  0  0  0
    7.0440   15.5910   -7.9610 H   0  0  0  0  0  0  0  0  0  0  0  0
    5.5850   16.5200   -8.3800 H   0  0  0  0  0  0  0  0  0  0  0  0
    5.7360   14.6350   -9.3040 C   0  0  0  0  0  0  0  0  0  0  0  0
    4.8520   14.7920  -10.1880 O   0  0  0  0  0  0  0  0  0  0  0  0
    6.1520   13.5130   -8.8840 O   0  0  0  0  0  0  0  0  0  0  0  0
    1.6580   16.8130  -11.9920 N   0  0  0  0  0  2  0  0  0  0  0  0
    2.3630   16.6600  -11.2430 H   0  0  0  0  0  0  0  0  0  0  0  0
    0.5750   15.8710  -12.1280 C   0  0  2  0  0  0  0  0  0  0  0  0
    0.1290   15.9910  -13.1150 H   0  0  0  0  0  0  0  0  0  0  0  0
   -0.5220   16.1130  -11.1130 C   0  0  0  0  0  0  0  0  0  0  0  0
   -0.2990   16.7340  -10.0760 O   0  0  0  0  0  0  0  0  0  0  0  0
    1.1300   14.4960  -11.9520 C   0  0  0  0  0  0  0  0  0  0  0  0
    0.3140   13.7740  -11.9180 H   0  0  0  0  0  0  0  0  0  0  0  0
    1.6970   14.4460  -11.0220 H   0  0  0  0  0  0  0  0  0  0  0  0
    1.9940   14.1960  -13.0610 O   0  0  0  0  0  0  0  0  0  0  0  0
    2.3660   13.2850  -12.9510 H   0  0  0  0  0  0  0  0  0  0  0  0
   -1.7070   15.5990  -11.3820 N   0  0  0  0  0  0  0  0  0  0  0  0
   -1.8300   15.0390  -12.2500 H   0  0  0  0  0  0  0  0  0  0  0  0
   -2.8500   15.7940  -10.4960 C   0  0  2  0  0  0  0  0  0  0  0  0
   -2.4940   15.6940   -9.4710 H   0  0  0  0  0  0  0  0  0  0  0  0
   -3.9360   14.7420  -10.7100 C   0  0  0  0  0  0  0  0  0  0  0  0
   -4.1170   14.2150  -11.8220 O   0  0  0  0  0  0  0  0  0  0  0  0
   -3.4310   17.1680  -10.7260 C   0  0  0  0  0  0  0  0  0  0  0  0
   -3.6970   17.2780  -11.7770 H   0  0  0  0  0  0  0  0  0  0  0  0
   -2.6920   17.9230  -10.4590 H   0  0  0  0  0  0  0  0  0  0  0  0
   -4.5930   17.3400   -9.9250 O   0  0  0  0  0  0  0  0  0  0  0  0
   -4.9690   18.2430  -10.0800 H   0  0  0  0  0  0  0  0  0  0  0  0
   -4.6520   14.4140   -9.6350 N   0  0  0  0  0  0  0  0  0  0  0  0
   -4.3590   14.7920   -8.7110 H   0  0  0  0  0  0  0  0  0  0  0  0
   -5.8320   13.5460   -9.6910 C   0  0  2  0  0  0  0  0  0  0  0  0
   -5.6450   12.7780  -10.4420 H   0  0  0  0  0  0  0  0  0  0  0  0
   -7.0770   14.3290  -10.1220 C   0  0  0  0  0  3  0  0  0  0  0  0
   -8.0250   13.7390  -10.5890 O   0  0  0  0  0  0  0  0  0  0  0  0
   -6.0610   12.8570   -8.3570 C   0  0  0  0  0  0  0  0  0  0  0  0
   -5.9730   13.6020   -7.5670 H   0  0  0  0  0  0  0  0  0  0  0  0
   -7.0700   12.4440   -8.3540 H   0  0  0  0  0  0  0  0  0  0  0  0
   -5.0730   11.7210   -8.0610 C   0  0  0  0  0  0  0  0  0  0  0  0
   -4.0720   11.8810   -7.1020 C   0  0  0  0  0  0  0  0  0  0  0  0
   -3.9860   12.8270   -6.5670 H   0  0  0  0  0  0  0  0  0  0  0  0
   -5.1740   10.4980   -8.7080 C   0  0  0  0  0  0  0  0  0  0  0  0
   -5.9560   10.3530   -9.4530 H   0  0  0  0  0  0  0  0  0  0  0  0
   -3.1820   10.8480   -6.8190 C   0  0  0  0  0  0  0  0  0  0  0  0
   -2.4060   10.9870   -6.0660 H   0  0  0  0  0  0  0  0  0  0  0  0
   -4.2920    9.4420   -8.4250 C   0  0  0  0  0  0  0  0  0  0  0  0
   -4.4060    8.4830   -8.9310 H   0  0  0  0  0  0  0  0  0  0  0  0
   -3.2860    9.6220   -7.5080 C   0  0  0  0  0  0  0  0  0  0  0  0
   -2.5720    8.8220   -7.3140 H   0  0  0  0  0  0  0  0  0  0  0  0
   -3.3140    5.0230  -13.0570 N   0  0  0  0  0  2  0  0  0  0  0  0
   -4.1400    5.6150  -12.8370 H   0  0  0  0  0  0  0  0  0  0  0  0
   -2.5170    4.4610  -11.9940 C   0  0  2  0  0  0  0  0  0  0  0  0
   -1.7250    3.8470  -12.4230 H   0  0  0  0  0  0  0  0  0  0  0  0
   -3.4380    3.6400  -11.1070 C   0  0  0  0  0  3  0  0  0  0  0  0
   -4.4710    4.1900  -10.6370 O   0  0  0  0  0  0  0  0  0  0  0  0
   -1.8540    5.5840  -11.1350 C   0  0  0  0  0  0  0  0  0  0  0  0
   -2.6490    6.2450  -10.7900 H   0  0  0  0  0  0  0  0  0  0  0  0
   -1.1450    4.9970   -9.9330 C   0  0  0  0  0  0  0  0  0  0  0  0
   -1.8650    4.4610   -9.3150 H   0  0  0  0  0  0  0  0  0  0  0  0
   -0.3700    4.3090  -10.2700 H   0  0  0  0  0  0  0  0  0  0  0  0
   -0.6920    5.8000   -9.3520 H   0  0  0  0  0  0  0  0  0  0  0  0
   -0.8790    6.3820  -11.9530 C   0  0  0  0  0  0  0  0  0  0  0  0
   -0.0980    5.7220  -12.3300 H   0  0  0  0  0  0  0  0  0  0  0  0
   -1.4020    6.8440  -12.7900 H   0  0  0  0  0  0  0  0  0  0  0  0
   -0.4320    7.1570  -11.3300 H   0  0  0  0  0  0  0  0  0  0  0  0
   -4.5210    2.0210   -7.7850 N   0  0  0  0  0  2  0  0  0  0  0  0
   -5.4600    2.1270   -8.2190 H   0  0  0  0  0  0  0  0  0  0  0  0
   -4.3760    2.2860   -6.3400 C   0  0  2  0  0  0  0  0  0  0  0  0
   -3.3700    1.9630   -6.0710 H   0  0  0  0  0  0  0  0  0  0  0  0
   -5.3740    1.4700   -5.5200 C   0  0  0  0  0  3  0  0  0  0  0  0
   -6.6090    1.7400   -5.5300 O   0  0  0  0  0  0  0  0  0  0  0  0
   -4.4620    3.8040   -5.9870 C   0  0  2  0  0  0  0  0  0  0  0  0
   -5.4400    4.1780   -6.2900 H   0  0  0  0  0  0  0  0  0  0  0  0
   -3.3750    4.5860   -6.7450 C   0  0  0  0  0  0  0  0  0  0  0  0
   -2.4260    4.4330   -6.2310 H   0  0  0  0  0  0  0  0  0  0  0  0
   -3.3090    4.1820   -7.7550 H   0  0  0  0  0  0  0  0  0  0  0  0
   -4.3050    4.0130   -4.4580 C   0  0  0  0  0  0  0  0  0  0  0  0
   -5.1000    3.4810   -3.9360 H   0  0  0  0  0  0  0  0  0  0  0  0
   -3.3370    3.6280   -4.1370 H   0  0  0  0  0  0  0  0  0  0  0  0
   -4.3670    5.0770   -4.2300 H   0  0  0  0  0  0  0  0  0  0  0  0
   -3.6210    6.0930   -6.8510 C   0  0  0  0  0  0  0  0  0  0  0  0
   -4.5590    6.2710   -7.3760 H   0  0  0  0  0  0  0  0  0  0  0  0
   -3.6760    6.5220   -5.8510 H   0  0  0  0  0  0  0  0  0  0  0  0
   -2.8020    6.5560   -7.4010 H   0  0  0  0  0  0  0  0  0  0  0  0
   -7.1030    4.9550  -11.2140 N   0  0  0  0  0  2  0  0  0  0  0  0
   -6.1220    4.6450  -11.0650 H   0  0  0  0  0  0  0  0  0  0  0  0
   -7.3690    6.3930  -11.2260 C   0  0  2  0  0  0  0  0  0  0  0  0
   -8.4260    6.5500  -11.4390 H   0  0  0  0  0  0  0  0  0  0  0  0
   -6.5510    7.1110  -12.3230 C   0  0  0  0  0  3  0  0  0  0  0  0
   -5.3670    6.8340  -12.4820 O   0  0  0  0  0  0  0  0  0  0  0  0
   -6.9990    6.9690   -9.8590 C   0  0  0  0  0  0  0  0  0  0  0  0
   -5.9460    6.7590   -9.6690 H   0  0  0  0  0  0  0  0  0  0  0  0
   -7.1550    8.0480   -9.8840 H   0  0  0  0  0  0  0  0  0  0  0  0
   -7.8100    6.3970   -8.7320 C   0  0  0  0  0  0  0  0  0  0  0  0
   -9.1120    6.7880   -8.4820 N   0  0  0  0  0  0  0  0  0  0  0  0
   -7.5200    5.4300   -7.8250 C   0  0  0  0  0  0  0  0  0  0  0  0
   -6.5730    4.9000   -7.7210 H   0  0  0  0  0  0  0  0  0  0  0  0
   -9.5840    6.0790   -7.4730 C   0  0  0  0  0  0  0  0  0  0  0  0
  -10.5840    6.1660   -7.0470 H   0  0  0  0  0  0  0  0  0  0  0  0
   -8.6430    5.2470   -7.0660 N   0  0  0  0  0  0  0  0  0  0  0  0
   -4.3430    9.9870  -13.8600 N   0  0  0  0  0  2  0  0  0  0  0  0
   -3.9430    9.2670  -14.4950 H   0  0  0  0  0  0  0  0  0  0  0  0
   -3.4660   11.0950  -13.4060 C   0  0  2  0  0  0  0  0  0  0  0  0
   -3.9980   11.6020  -12.6010 H   0  0  0  0  0  0  0  0  0  0  0  0
   -3.1980   12.0700  -14.5610 C   0  0  0  0  0  3  0  0  0  0  0  0
   -2.6940   11.6660  -15.6100 O   0  0  0  0  0  0  0  0  0  0  0  0
   -2.1230   10.5980  -12.8370 C   0  0  0  0  0  0  0  0  0  0  0  0
   -1.6160   10.0380  -13.6230 H   0  0  0  0  0  0  0  0  0  0  0  0
   -1.2160   11.7770  -12.4230 C   0  0  0  0  0  0  0  0  0  0  0  0
   -1.0140   12.4010  -13.2930 H   0  0  0  0  0  0  0  0  0  0  0  0
   -1.7190   12.3690  -11.6580 H   0  0  0  0  0  0  0  0  0  0  0  0
   -0.2780   11.3900  -12.0260 H   0  0  0  0  0  0  0  0  0  0  0  0
   -2.3600    9.6900  -11.6480 C   0  0  0  0  0  0  0  0  0  0  0  0
   -2.8940   10.2400  -10.8730 H   0  0  0  0  0  0  0  0  0  0  0  0
   -2.9540    8.8310  -11.9610 H   0  0  0  0  0  0  0  0  0  0  0  0
   -1.4020    9.3470  -11.2570 H   0  0  0  0  0  0  0  0  0  0  0  0
   10.6540   11.3050   -5.5760 N   0  0  0  0  0  2  0  0  0  0  0  0
   10.3920   12.2850   -5.8030 H   0  0  0  0  0  0  0  0  0  0  0  0
   10.0940   10.6720   -4.3490 C   0  0  2  0  0  0  0  0  0  0  0  0
   10.8680    9.9920   -3.9930 H   0  0  0  0  0  0  0  0  0  0  0  0
    8.8430    9.8410   -4.6350 C   0  0  0  0  0  0  0  0  0  0  0  0
    8.3760    9.1070   -3.7350 O   0  0  0  0  0  0  0  0  0  0  0  0
    9.8210   11.6790   -3.2540 C   0  0  0  0  0  0  0  0  0  0  0  0
   10.7510   12.1790   -2.9810 H   0  0  0  0  0  0  0  0  0  0  0  0
    9.1020   12.4160   -3.6110 H   0  0  0  0  0  0  0  0  0  0  0  0
    9.4140   11.1650   -2.3830 H   0  0  0  0  0  0  0  0  0  0  0  0
    8.3280    9.9240   -5.8760 N   0  0  0  0  0  0  0  0  0  0  0  0
    8.8050   10.5390   -6.5650 H   0  0  0  0  0  0  0  0  0  0  0  0
    7.1420    9.2010   -6.3060 C   0  0  2  0  0  0  0  0  0  0  0  0
    6.4000    9.3360   -5.5190 H   0  0  0  0  0  0  0  0  0  0  0  0
    7.4250    7.7530   -6.4980 C   0  0  0  0  0  0  0  0  0  0  0  0
    8.5700    7.2700   -6.4620 O   0  0  0  0  0  0  0  0  0  0  0  0
    6.6180    9.7450   -7.6390 C   0  0  0  0  0  0  0  0  0  0  0  0
    5.6190    9.3460   -7.8150 H   0  0  0  0  0  0  0  0  0  0  0  0
    7.2840    9.4210   -8.4390 H   0  0  0  0  0  0  0  0  0  0  0  0
    6.5530   11.1910   -7.6390 O   0  0  0  0  0  0  0  0  0  0  0  0
    6.2110   11.5050   -8.5140 H   0  0  0  0  0  0  0  0  0  0  0  0
    6.3550    7.0580   -6.8100 N   0  0  0  0  0  0  0  0  0  0  0  0
    5.4610    7.5640   -6.9720 H   0  0  0  0  0  0  0  0  0  0  0  0
    6.3700    5.6400   -6.9350 C   0  0  2  0  0  0  0  0  0  0  0  0
    7.1620    5.1570   -6.3640 H   0  0  0  0  0  0  0  0  0  0  0  0
    6.5790    5.3360   -8.4090 C   0  0  0  0  0  3  0  0  0  0  0  0
    6.0940    6.0730   -9.2600 O   0  0  0  0  0  0  0  0  0  0  0  0
    5.0220    5.1190   -6.4090 C   0  0  0  0  0  0  0  0  0  0  0  0
    4.2350    5.7010   -6.8870 H   0  0  0  0  0  0  0  0  0  0  0  0
    4.9330    4.0750   -6.7090 H   0  0  0  0  0  0  0  0  0  0  0  0
    4.7900    5.1880   -4.8740 C   0  0  0  0  0  0  0  0  0  0  0  0
    5.0100    6.2120   -4.5710 H   0  0  0  0  0  0  0  0  0  0  0  0
    3.3110    4.7880   -4.5700 C   0  0  0  0  0  0  0  0  0  0  0  0
    2.6380    5.4790   -5.0770 H   0  0  0  0  0  0  0  0  0  0  0  0
    3.1300    3.7740   -4.9260 H   0  0  0  0  0  0  0  0  0  0  0  0
    3.1370    4.8330   -3.4950 H   0  0  0  0  0  0  0  0  0  0  0  0
    5.7270    4.2640   -4.0560 C   0  0  0  0  0  0  0  0  0  0  0  0
    5.5710    3.2290   -4.3610 H   0  0  0  0  0  0  0  0  0  0  0  0
    6.7640    4.5460   -4.2400 H   0  0  0  0  0  0  0  0  0  0  0  0
    5.5030    4.3690   -2.9940 H   0  0  0  0  0  0  0  0  0  0  0  0
    5.3050    3.2970  -10.3550 N   0  0  0  0  0  2  0  0  0  0  0  0
    5.3190    3.2100   -9.3190 H   0  0  0  0  0  0  0  0  0  0  0  0
    4.1120    2.9140  -11.0930 C   0  0  2  0  0  0  0  0  0  0  0  0
    4.3770    2.2010  -11.8730 H   0  0  0  0  0  0  0  0  0  0  0  0
    3.5250    4.1710  -11.7290 C   0  0  0  0  0  0  0  0  0  0  0  0
    2.8290    4.0740  -12.7370 O   0  0  0  0  0  0  0  0  0  0  0  0
    3.0890    2.1810  -10.2000 C   0  0  0  0  0  0  0  0  0  0  0  0
    2.2390    1.8870  -10.8160 H   0  0  0  0  0  0  0  0  0  0  0  0
    3.5630    1.2900   -9.7890 H   0  0  0  0  0  0  0  0  0  0  0  0
    2.5850    3.0260   -9.0590 C   0  0  0  0  0  0  0  0  0  0  0  0
    3.2850    2.9380   -8.2280 H   0  0  0  0  0  0  0  0  0  0  0  0
    2.5440    4.0640   -9.3890 H   0  0  0  0  0  0  0  0  0  0  0  0
    1.2080    2.6210   -8.5730 C   0  0  0  0  0  0  0  0  0  0  0  0
    0.7530    3.4710   -8.0650 H   0  0  0  0  0  0  0  0  0  0  0  0
    0.6000    2.3470   -9.4350 H   0  0  0  0  0  0  0  0  0  0  0  0
    1.2480    1.4500   -7.6160 C   0  0  0  0  0  0  0  0  0  0  0  0
    2.1300    1.5540   -6.9850 H   0  0  0  0  0  0  0  0  0  0  0  0
    1.3270    0.5330   -8.2000 H   0  0  0  0  0  0  0  0  0  0  0  0
    0.0220    1.3380   -6.7120 N   0  0  0  0  0  4  0  0  0  0  0  0
   -0.0630    2.2000   -6.1370 H   0  0  0  0  0  0  0  0  0  0  0  0
   -0.8300    1.2250   -7.2980 H   0  0  0  0  0  0  0  0  0  0  0  0
    0.1270    0.5130   -6.0880 H   0  0  0  0  0  0  0  0  0  0  0  0
    3.8150    5.3320  -11.1570 N   0  0  0  0  0  0  0  0  0  0  0  0
    4.3440    5.3460  -10.2620 H   0  0  0  0  0  0  0  0  0  0  0  0
    3.4060    6.5700  -11.7600 C   0  0  2  0  0  0  0  0  0  0  0  0
    2.6010    6.3500  -12.4610 H   0  0  0  0  0  0  0  0  0  0  0  0
    4.5830    7.2000  -12.5340 C   0  0  0  0  0  3  0  0  0  0  0  0
    4.3900    7.6850  -13.6440 O   0  0  0  0  0  0  0  0  0  0  0  0
    2.8330    7.5740  -10.6990 C   0  0  0  0  0  0  0  0  0  0  0  0
    1.7520    7.4410  -10.6510 H   0  0  0  0  0  0  0  0  0  0  0  0
    3.2710    7.3350   -9.7300 H   0  0  0  0  0  0  0  0  0  0  0  0
    3.1220    9.0400  -11.0060 C   0  0  0  0  0  0  0  0  0  0  0  0
    2.4190    9.6990  -11.9770 C   0  0  0  0  0  0  0  0  0  0  0  0
    1.6340    9.1740  -12.5200 H   0  0  0  0  0  0  0  0  0  0  0  0
    4.1580    9.7400  -10.3510 C   0  0  0  0  0  0  0  0  0  0  0  0
    4.7460    9.2230   -9.5930 H   0  0  0  0  0  0  0  0  0  0  0  0
    2.7000   11.0760  -12.2930 C   0  0  0  0  0  0  0  0  0  0  0  0
    2.1060   11.5870  -13.0510 H   0  0  0  0  0  0  0  0  0  0  0  0
    4.4620   11.1120  -10.6520 C   0  0  0  0  0  0  0  0  0  0  0  0
    5.2550   11.6380  -10.1200 H   0  0  0  0  0  0  0  0  0  0  0  0
    3.7150   11.7570  -11.6450 C   0  0  0  0  0  0  0  0  0  0  0  0
    3.9630   13.0750  -12.0290 O   0  0  0  0  0  0  0  0  0  0  0  0
    3.3260   13.3360  -12.7410 H   0  0  0  0  0  0  0  0  0  0  0  0
   10.9780    6.3050   -4.9480 N   0  0  0  0  0  2  0  0  0  0  0  0
   10.1880    5.9880   -5.5450 H   0  0  0  0  0  0  0  0  0  0  0  0
   10.7200    6.5580   -3.5270 C   0  0  2  0  0  0  0  0  0  0  0  0
   10.9690    7.6020   -3.3390 H   0  0  0  0  0  0  0  0  0  0  0  0
   11.6250    5.7190   -2.6400 C   0  0  0  0  0  3  0  0  0  0  0  0
   12.2670    6.2920   -1.7970 O   0  0  0  0  0  0  0  0  0  0  0  0
    9.2040    6.4100   -3.1540 C   0  0  0  0  0  0  0  0  0  0  0  0
    8.6640    7.2090   -3.6620 H   0  0  0  0  0  0  0  0  0  0  0  0
    8.8680    5.4460   -3.5360 H   0  0  0  0  0  0  0  0  0  0  0  0
    8.8060    6.4750   -1.6050 C   0  0  0  0  0  0  0  0  0  0  0  0
    9.0730    5.5270   -1.1380 H   0  0  0  0  0  0  0  0  0  0  0  0
    9.3690    7.2810   -1.1350 H   0  0  0  0  0  0  0  0  0  0  0  0
    7.2710    6.7340   -1.3710 C   0  0  0  0  0  0  0  0  0  0  0  0
    6.9860    6.4380   -0.3620 H   0  0  0  0  0  0  0  0  0  0  0  0
    6.6770    6.1740   -2.0940 H   0  0  0  0  0  0  0  0  0  0  0  0
    7.0740    8.1750   -1.5550 N   0  0  0  0  0  0  0  0  0  0  0  0
    7.9010    8.7810   -1.3810 H   0  0  0  0  0  0  0  0  0  0  0  0
    5.9530    8.7950   -1.9200 C   0  0  0  0  0  0  0  0  0  0  0  0
    4.8300    8.1290   -2.1550 N   0  0  0  0  0  4  0  0  0  0  0  0
    4.8090    7.0940   -2.0560 H   0  0  0  0  0  0  0  0  0  0  0  0
    3.9710    8.6420   -2.4390 H   0  0  0  0  0  0  0  0  0  0  0  0
    5.9750   10.1110   -2.0680 N   0  0  0  0  0  0  0  0  0  0  0  0
    6.8550   10.6390   -1.9000 H   0  0  0  0  0  0  0  0  0  0  0  0
    5.1120   10.6170   -2.3520 H   0  0  0  0  0  0  0  0  0  0  0  0
   11.6800   13.6970    2.1500 N   0  0  0  0  0  2  0  0  0  0  0  0
   11.0060   14.3750    1.7400 H   0  0  0  0  0  0  0  0  0  0  0  0
   12.3750   12.7460    1.2760 C   0  0  2  0  0  0  0  0  0  0  0  0
   12.5890   11.8420    1.8460 H   0  0  0  0  0  0  0  0  0  0  0  0
   13.6730   13.4000    0.7880 C   0  0  0  0  0  3  0  0  0  0  0  0
   13.6690   14.3550    0.0170 O   0  0  0  0  0  0  0  0  0  0  0  0
   11.5200   12.3200    0.0890 C   0  0  0  0  0  0  0  0  0  0  0  0
   11.3570   13.1990   -0.5350 H   0  0  0  0  0  0  0  0  0  0  0  0
   12.0810   11.5750   -0.4740 H   0  0  0  0  0  0  0  0  0  0  0  0
   10.1640   11.7270    0.4160 C   0  0  0  0  0  0  0  0  0  0  0  0
   10.0310   10.3500    0.7370 C   0  0  0  0  0  0  0  0  0  0  0  0
   10.9170    9.7150    0.7680 H   0  0  0  0  0  0  0  0  0  0  0  0
    9.0060   12.5450    0.3790 C   0  0  0  0  0  0  0  0  0  0  0  0
    9.1020   13.6000    0.1210 H   0  0  0  0  0  0  0  0  0  0  0  0
    8.7740    9.8000    1.0140 C   0  0  0  0  0  0  0  0  0  0  0  0
    8.6750    8.7420    1.2580 H   0  0  0  0  0  0  0  0  0  0  0  0
    7.7410   12.0170    0.6690 C   0  0  0  0  0  0  0  0  0  0  0  0
    6.8570   12.6550    0.6610 H   0  0  0  0  0  0  0  0  0  0  0  0
    7.6340   10.6360    0.9730 C   0  0  0  0  0  0  0  0  0  0  0  0
    6.3730   10.1120    1.2340 O   0  0  0  0  0  0  0  0  0  0  0  0
    6.4530    9.1450    1.4290 H   0  0  0  0  0  0  0  0  0  0  0  0
    6.8140   13.4770   -8.2220 H   0  0  0  0  0  0  0  0  0  0  0  0
   -8.7350    4.5970   -6.3320 H   0  0  0  0  0  0  0  0  0  0  0  0
  1  2  1  0
  1  3  1  0
  3  4  1  6
  3  5  1  0
  3  7  1  0
  5  6  2  0
  7  8  1  0
  7  9  1  0
  7 10  1  0
 10 11  2  0
 10 12  1  0
 12250  1  0
 13 14  1  0
 13 15  1  0
 15 16  1  6
 15 17  1  0
 15 19  1  0
 17 18  2  0
 17 24  1  0
 19 20  1  0
 19 21  1  0
 19 22  1  0
 22 23  1  0
 24 25  1  0
 24 26  1  0
 26 27  1  1
 26 28  1  0
 26 30  1  0
 28 29  2  0
 28 35  1  0
 30 31  1  0
 30 32  1  0
 30 33  1  0
 33 34  1  0
 35 36  1  0
 35 37  1  0
 37 38  1  6
 37 39  1  0
 37 41  1  0
 39 40  2  0
 41 42  1  0
 41 43  1  0
 41 44  1  0
 44 45  2  0
 44 47  1  0
 45 46  1  0
 45 49  1  0
 47 48  1  0
 47 51  2  0
 49 50  1  0
 49 53  2  0
 51 52  1  0
 51 53  1  0
 53 54  1  0
 55 56  1  0
 55 57  1  0
 57 58  1  6
 57 59  1  0
 57 61  1  0
 59 60  2  0
 61 62  1  0
 61 63  1  0
 61 67  1  0
 63 64  1  0
 63 65  1  0
 63 66  1  0
 67 68  1  0
 67 69  1  0
 67 70  1  0
 71 72  1  0
 71 73  1  0
 73 74  1  1
 73 75  1  0
 73 77  1  0
 75 76  2  0
 77 78  1  6
 77 79  1  0
 77 82  1  0
 79 80  1  0
 79 81  1  0
 79 86  1  0
 82 83  1  0
 82 84  1  0
 82 85  1  0
 86 87  1  0
 86 88  1  0
 86 89  1  0
 90 91  1  0
 90 92  1  0
 92 93  1  6
 92 94  1  0
 92 96  1  0
 94 95  2  0
 96 97  1  0
 96 98  1  0
 96 99  1  0
 99100  1  0
 99101  2  0
100103  2  0
101102  1  0
101105  1  0
103104  1  0
103105  1  0
105251  1  0
106107  1  0
106108  1  0
108109  1  1
108110  1  0
108112  1  0
110111  2  0
112113  1  0
112114  1  0
112118  1  0
114115  1  0
114116  1  0
114117  1  0
118119  1  0
118120  1  0
118121  1  0
122123  1  0
122124  1  0
124125  1  1
124126  1  0
124128  1  0
126127  2  0
126132  1  0
128129  1  0
128130  1  0
128131  1  0
132133  1  0
132134  1  0
134135  1  1
134136  1  0
134138  1  0
136137  2  0
136143  1  0
138139  1  0
138140  1  0
138141  1  0
141142  1  0
143144  1  0
143145  1  0
145146  1  1
145147  1  0
145149  1  0
147148  2  0
149150  1  0
149151  1  0
149152  1  0
152153  1  0
152154  1  0
152158  1  0
154155  1  0
154156  1  0
154157  1  0
158159  1  0
158160  1  0
158161  1  0
162163  1  0
162164  1  0
164165  1  6
164166  1  0
164168  1  0
166167  2  0
166184  1  0
168169  1  0
168170  1  0
168171  1  0
171172  1  0
171173  1  0
171174  1  0
174175  1  0
174176  1  0
174177  1  0
177178  1  0
177179  1  0
177180  1  0
180181  1  0
180182  1  0
180183  1  0
184185  1  0
184186  1  0
186187  1  6
186188  1  0
186190  1  0
188189  2  0
190191  1  0
190192  1  0
190193  1  0
193194  2  0
193196  1  0
194195  1  0
194198  1  0
196197  1  0
196200  2  0
198199  1  0
198202  2  0
200201  1  0
200202  1  0
202203  1  0
203204  1  0
205206  1  0
205207  1  0
207208  1  6
207209  1  0
207211  1  0
209210  2  0
211212  1  0
211213  1  0
211214  1  0
214215  1  0
214216  1  0
214217  1  0
217218  1  0
217219  1  0
217220  1  0
220221  1  0
220222  1  0
222223  2  0
222226  1  0
223224  1  0
223225  1  0
226227  1  0
226228  1  0
229230  1  0
229231  1  0
231232  1  1
231233  1  0
231235  1  0
233234  2  0
235236  1  0
235237  1  0
235238  1  0
238239  2  0
238241  1  0
239240  1  0
239243  1  0
241242  1  0
241245  2  0
243244  1  0
243247  2  0
245246  1  0
245247  1  0
247248  1  0
248249  1  0
M  RAD  8   1   2   5   2  13   2  39   2  55   2  59   2  71   2  75   2
M  RAD  8  90   2  94   2 106   2 110   2 122   2 147   2 162   2 188   2
M  CHG  2 180   1 223   1
M  RAD  4 205   2 209   2 229   2 233   2
M  END
$$$$

     RDKit          3D

251245  0  0  0  0  0  0  0  0999 V2000
    8.2390   15.7430  -10.2460 N   0  0  0  0  0  2  0  0  0  0  0  0
    8.4060   14.8450   -9.7480 H   0  0  0  0  0  0  0  0  0  0  0  0
    7.1270   16.5820   -9.8330 C   0  0  2  0  0  0  0  0  0  0  0  0
    6.5240   16.7530  -10.7240 H   0  0  0  0  0  0  0  0  0  0  0  0
    7.5010   17.9630   -9.3590 C   0  0  0  0  0  3  0  0  0  0  0  0
    8.3130   18.1090   -8.4540 O   0  0  0  0  0  0  0  0  0  0  0  0
    6.3630   15.8620   -8.7680 C   0  0  0  0  0  0  0  0  0  0  0  0
    7.0440   15.5910   -7.9610 H   0  0  0  0  0  0  0  0  0  0  0  0
    5.5850   16.5200   -8.3800 H   0  0  0  0  0  0  0  0  0  0  0  0
    5.7360   14.6350   -9.3040 C   0  0  0  0  0  0  0  0  0  0  0  0
    4.8520   14.7920  -10.1880 O   0  0  0  0  0  0  0  0  0  0  0  0
    6.1520   13.5130   -8.8840 O   0  0  0  0  0  0  0  0  0  0  0  0
    1.6580   16.8130  -11.9920 N   0  0  0  0  0  2  0  0  0  0  0  0
    2.3630   16.6600  -11.2430 H   0  0  0  0  0  0  0  0  0  0  0  0
    0.5750   15.8710  -12.1280 C   0  0  2  0  0  0  0  0  0  0  0  0
    0.1290   15.9910  -13.1150 H   0  0  0  0  0  0  0  0  0  0  0  0
   -0.5220   16.1130  -11.1130 C   0  0  0  0  0  0  0  0  0  0  0  0
   -0.2990   16.7340  -10.0760 O   0  0  0  0  0  0  0  0  0  0  0  0
    1.1300   14.4960  -11.9520 C   0  0  0  0  0  0  0  0  0  0  0  0
    0.3140   13.7740  -11.9180 H   0  0  0  0  0  0  0  0  0  0  0  0
    1.6970   14.4460  -11.0220 H   0  0  0  0  0  0  0  0  0  0  0  0
    1.9940   14.1960  -13.0610 O   0  0  0  0  0  0  0  0  0  0  0  0
    2.3660   13.2850  -12.9510 H   0  0  0  0  0  0  0  0  0  0  0  0
   -1.7070   15.5990  -11.3820 N   0  0  0  0  0  0  0  0  0  0  0  0
   -1.8300   15.0390  -12.2500 H   0  0  0  0  0  0  0  0  0  0  0  0
   -2.8500   15.7940  -10.4960 C   0  0  2  0  0  0  0  0  0  0  0  0
   -2.4940   15.6940   -9.4710 H   0  0  0  0  0  0  0  0  0  0  0  0
   -3.9360   14.7420  -10.7100 C   0  0  0  0  0  0  0  0  0  0  0  0
   -4.1170   14.2150  -11.8220 O   0  0  0  0  0  0  0  0  0  0  0  0
   -3.4310   17.1680  -10.7260 C   0  0  0  0  0  0  0  0  0  0  0  0
   -3.6970   17.2780  -11.7770 H   0  0  0  0  0  0  0  0  0  0  0  0
   -2.6920   17.9230  -10.4590 H   0  0  0  0  0  0  0  0  0  0  0  0
   -4.5930   17.3400   -9.9250 O   0  0  0  0  0  0  0  0  0  0  0  0
   -4.9690   18.2430  -10.0800 H   0  0  0  0  0  0  0  0  0  0  0  0
   -4.6520   14.4140   -9.6350 N   0  0  0  0  0  0  0  0  0  0  0  0
   -4.3590   14.7920   -8.7110 H   0  0  0  0  0  0  0  0  0  0  0  0
   -5.8320   13.5460   -9.6910 C   0  0  2  0  0  0  0  0  0  0  0  0
   -5.6450   12.7780  -10.4420 H   0  0  0  0  0  0  0  0  0  0  0  0
   -7.0770   14.3290  -10.1220 C   0  0  0  0  0  3  0  0  0  0  0  0
   -8.0250   13.7390  -10.5890 O   0  0  0  0  0  0  0  0  0  0  0  0
   -6.0610   12.8570   -8.3570 C   0  0  0  0  0  0  0  0  0  0  0  0
   -5.9730   13.6020   -7.5670 H   0  0  0  0  0  0  0  0  0  0  0  0
   -7.0700   12.4440   -8.3540 H   0  0  0  0  0  0  0  0  0  0  0  0
   -5.0730   11.7210   -8.0610 C   0  0  0  0  0  0  0  0  0  0  0  0
   -4.0720   11.8810   -7.1020 C   0  0  0  0  0  0  0  0  0  0  0  0
   -3.9860   12.8270   -6.5670 H   0  0  0  0  0  0  0  0  0  0  0  0
   -5.1740   10.4980   -8.7080 C   0  0  0  0  0  0  0  0  0  0  0  0
   -5.9560   10.3530   -9.4530 H   0  0  0  0  0  0  0  0  0  0  0  0
   -3.1820   10.8480   -6.8190 C   0  0  0  0  0  0  0  0  0  0  0  0
   -2.4060   10.9870   -6.0660 H   0  0  0  0  0  0  0  0  0  0  0  0
   -4.2920    9.4420   -8.4250 C   0  0  0  0  0  0  0  0  0  0  0  0
   -4.4060    8.4830   -8.9310 H   0  0  0  0  0  0  0  0  0  0  0  0
   -3.2860    9.6220   -7.5080 C   0  0  0  0  0  0  0  0  0  0  0  0
   -2.5720    8.8220   -7.3140 H   0  0  0  0  0  0  0  0  0  0  0  0
   -3.3140    5.0230  -13.0570 N   0  0  0  0  0  2  0  0  0  0  0  0
   -4.1400    5.6150  -12.8370 H   0  0  0  0  0  0  0  0  0  0  0  0
   -2.5170    4.4610  -11.9940 C   0  0  2  0  0  0  0  0  0  0  0  0
   -1.7250    3.8470  -12.4230 H   0  0  0  0  0  0  0  0  0  0  0  0
   -3.4380    3.6400  -11.1070 C   0  0  0  0  0  3  0  0  0  0  0  0
   -4.4710    4.1900  -10.6370 O   0  0  0  0  0  0  0  0  0  0  0  0
   -1.8540    5.5840  -11.1350 C   0  0  0  0  0  0  0  0  0  0  0  0
   -2.6490    6.2450  -10.7900 H   0  0  0  0  0  0  0  0  0  0  0  0
   -1.1450    4.9970   -9.9330 C   0  0  0  0  0  0  0  0  0  0  0  0
   -1.8650    4.4610   -9.3150 H   0  0  0  0  0  0  0  0  0  0  0  0
   -0.3700    4.3090  -10.2700 H   0  0  0  0  0  0  0  0  0  0  0  0
   -0.6920    5.8000   -9.3520 H   0  0  0  0  0  0  0  0  0  0  0  0
   -0.8790    6.3820  -11.9530 C   0  0  0  0  0  0  0  0  0  0  0  0
   -0.0980    5.7220  -12.3300 H   0  0  0  0  0  0  0  0  0  0  0  0
   -1.4020    6.8440  -12.7900 H   0  0  0  0  0  0  0  0  0  0  0  0
   -0.4320    7.1570  -11.3300 H   0  0  0  0  0  0  0  0  0  0  0  0
   -4.5210    2.0210   -7.7850 N   0  0  0  0  0  2  0  0  0  0  0  0
   -5.4600    2.1270   -8.2190 H   0  0  0  0  0  0  0  0  0  0  0  0
   -4.3760    2.2860   -6.3400 C   0  0  2  0  0  0  0  0  0  0  0  0
   -3.3700    1.9630   -6.0710 H   0  0  0  0  0  0  0  0  0  0  0  0
   -5.3740    1.4700   -5.5200 C   0  0  0  0  0  3  0  0  0  0  0  0
   -6.6090    1.7400   -5.5300 O   0  0  0  0  0  0  0  0  0  0  0  0
   -4.4620    3.8040   -5.9870 C   0  0  2  0  0  0  0  0  0  0  0  0
   -5.4400    4.1780   -6.2900 H   0  0  0  0  0  0  0  0  0  0  0  0
   -3.3750    4.5860   -6.7450 C   0  0  0  0  0  0  0  0  0  0  0  0
   -2.4260    4.4330   -6.2310 H   0  0  0  0  0  0  0  0  0  0  0  0
   -3.3090    4.1820   -7.7550 H   0  0  0  0  0  0  0  0  0  0  0  0
   -4.3050    4.0130   -4.4580 C   0  0  0  0  0  0  0  0  0  0  0  0
   -5.1000    3.4810   -3.9360 H   0  0  0  0  0  0  0  0  0  0  0  0
   -3.3370    3.6280   -4.1370 H   0  0  0  0  0  0  0  0  0  0  0  0
   -4.3670    5.0770   -4.2300 H   0  0  0  0  0  0  0  0  0  0  0  0
   -3.6210    6.0930   -6.8510 C   0  0  0  0  0  0  0  0  0  0  0  0
   -4.5590    6.2710   -7.3760 H   0  0  0  0  0  0  0  0  0  0  0  0
   -3.6760    6.5220   -5.8510 H   0  0  0  0  0  0  0  0  0  0  0  0
   -2.8020    6.5560   -7.4010 H   0  0  0  0  0  0  0  0  0  0  0  0
   -7.1030    4.9550  -11.2140 N   0  0  0  0  0  2  0  0  0  0  0  0
   -6.1220    4.6450  -11.0650 H   0  0  0  0  0  0  0  0  0  0  0  0
   -7.3690    6.3930  -11.2260 C   0  0  2  0  0  0  0  0  0  0  0  0
   -8.4260    6.5500  -11.4390 H   0  0  0  0  0  0  0  0  0  0  0  0
   -6.5510    7.1110  -12.3230 C   0  0  0  0  0  3  0  0  0  0  0  0
   -5.3670    6.8340  -12.4820 O   0  0  0  0  0  0  0  0  0  0  0  0
   -6.9990    6.9690   -9.8590 C   0  0  0  0  0  0  0  0  0  0  0  0
   -5.9460    6.7590   -9.6690 H   0  0  0  0  0  0  0  0  0  0  0  0
   -7.1550    8.0480   -9.8840 H   0  0  0  0  0  0  0  0  0  0  0  0
   -7.8100    6.3970   -8.7320 C   0  0  0  0  0  0  0  0  0  0  0  0
   -9.1120    6.7880   -8.4820 N   0  0  0  0  0  0  0  0  0  0  0  0
   -7.5200    5.4300   -7.8250 C   0  0  0  0  0  0  0  0  0  0  0  0
   -6.5730    4.9000   -7.7210 H   0  0  0  0  0  0  0  0  0  0  0  0
   -9.5840    6.0790   -7.4730 C   0  0  0  0  0  0  0  0  0  0  0  0
  -10.5840    6.1660   -7.0470 H   0  0  0  0  0  0  0  0  0  0  0  0
   -8.6430    5.2470   -7.0660 N   0  0  0  0  0  0  0  0  0  0  0  0
   -4.3430    9.9870  -13.8600 N   0  0  0  0  0  2  0  0  0  0  0  0
   -3.9430    9.2670  -14.4950 H   0  0  0  0  0  0  0  0  0  0  0  0
   -3.4660   11.0950  -13.4060 C   0  0  2  0  0  0  0  0  0  0  0  0
   -3.9980   11.6020  -12.6010 H   0  0  0  0  0  0  0  0  0  0  0  0
   -3.1980   12.0700  -14.5610 C   0  0  0  0  0  3  0  0  0  0  0  0
   -2.6940   11.6660  -15.6100 O   0  0  0  0  0  0  0  0  0  0  0  0
   -2.1230   10.5980  -12.8370 C   0  0  0  0  0  0  0  0  0  0  0  0
   -1.6160   10.0380  -13.6230 H   0  0  0  0  0  0  0  0  0  0  0  0
   -1.2160   11.7770  -12.4230 C   0  0  0  0  0  0  0  0  0  0  0  0
   -1.0140   12.4010  -13.2930 H   0  0  0  0  0  0  0  0  0  0  0  0
   -1.7190   12.3690  -11.6580 H   0  0  0  0  0  0  0  0  0  0  0  0
   -0.2780   11.3900  -12.0260 H   0  0  0  0  0  0  0  0  0  0  0  0
   -2.3600    9.6900  -11.6480 C   0  0  0  0  0  0  0  0  0  0  0  0
   -2.8940   10.2400  -10.8730 H   0  0  0  0  0  0  0  0  0  0  0  0
   -2.9540    8.8310  -11.9610 H   0  0  0  0  0  0  0  0  0  0  0  0
   -1.4020    9.3470  -11.2570 H   0  0  0  0  0  0  0  0  0  0  0  0
   10.6540   11.3050   -5.5760 N   0  0  0  0  0  2  0  0  0  0  0  0
   10.3920   12.2850   -5.8030 H   0  0  0  0  0  0  0  0  0  0  0  0
   10.0940   10.6720   -4.3490 C   0  0  2  0  0  0  0  0  0  0  0  0
   10.8680    9.9920   -3.9930 H   0  0  0  0  0  0  0  0  0  0  0  0
    8.8430    9.8410   -4.6350 C   0  0  0  0  0  0  0  0  0  0  0  0
    8.3760    9.1070   -3.7350 O   0  0  0  0  0  0  0  0  0  0  0  0
    9.8210   11.6790   -3.2540 C   0  0  0  0  0  0  0  0  0  0  0  0
   10.7510   12.1790   -2.9810 H   0  0  0  0  0  0  0  0  0  0  0  0
    9.1020   12.4160   -3.6110 H   0  0  0  0  0  0  0  0  0  0  0  0
    9.4140   11.1650   -2.3830 H   0  0  0  0  0  0  0  0  0  0  0  0
    8.3280    9.9240   -5.8760 N   0  0  0  0  0  0  0  0  0  0  0  0
    8.8050   10.5390   -6.5650 H   0  0  0  0  0  0  0  0  0  0  0  0
    7.1420    9.2010   -6.3060 C   0  0  2  0  0  0  0  0  0  0  0  0
    6.4000    9.3360   -5.5190 H   0  0  0  0  0  0  0  0  0  0  0  0
    7.4250    7.7530   -6.4980 C   0  0  0  0  0  0  0  0  0  0  0  0
    8.5700    7.2700   -6.4620 O   0  0  0  0  0  0  0  0  0  0  0  0
    6.6180    9.7450   -7.6390 C   0  0  0  0  0  0  0  0  0  0  0  0
    5.6190    9.3460   -7.8150 H   0  0  0  0  0  0  0  0  0  0  0  0
    7.2840    9.4210   -8.4390 H   0  0  0  0  0  0  0  0  0  0  0  0
    6.5530   11.1910   -7.6390 O   0  0  0  0  0  0  0  0  0  0  0  0
    6.2110   11.5050   -8.5140 H   0  0  0  0  0  0  0  0  0  0  0  0
    6.3550    7.0580   -6.8100 N   0  0  0  0  0  0  0  0  0  0  0  0
    5.4610    7.5640   -6.9720 H   0  0  0  0  0  0  0  0  0  0  0  0
    6.3700    5.6400   -6.9350 C   0  0  2  0  0  0  0  0  0  0  0  0
    7.1620    5.1570   -6.3640 H   0  0  0  0  0  0  0  0  0  0  0  0
    6.5790    5.3360   -8.4090 C   0  0  0  0  0  3  0  0  0  0  0  0
    6.0940    6.0730   -9.2600 O   0  0  0  0  0  0  0  0  0  0  0  0
    5.0220    5.1190   -6.4090 C   0  0  0  0  0  0  0  0  0  0  0  0
    4.2350    5.7010   -6.8870 H   0  0  0  0  0  0  0  0  0  0  0  0
    4.9330    4.0750   -6.7090 H   0  0  0  0  0  0  0  0  0  0  0  0
    4.7900    5.1880   -4.8740 C   0  0  0  0  0  0  0  0  0  0  0  0
    5.0100    6.2120   -4.5710 H   0  0  0  0  0  0  0  0  0  0  0  0
    3.3110    4.7880   -4.5700 C   0  0  0  0  0  0  0  0  0  0  0  0
    2.6380    5.4790   -5.0770 H   0  0  0  0  0  0  0  0  0  0  0  0
    3.1300    3.7740   -4.9260 H   0  0  0  0  0  0  0  0  0  0  0  0
    3.1370    4.8330   -3.4950 H   0  0  0  0  0  0  0  0  0  0  0  0
    5.7270    4.2640   -4.0560 C   0  0  0  0  0  0  0  0  0  0  0  0
    5.5710    3.2290   -4.3610 H   0  0  0  0  0  0  0  0  0  0  0  0
    6.7640    4.5460   -4.2400 H   0  0  0  0  0  0  0  0  0  0  0  0
    5.5030    4.3690   -2.9940 H   0  0  0  0  0  0  0  0  0  0  0  0
    5.3050    3.2970  -10.3550 N   0  0  0  0  0  2  0  0  0  0  0  0
    5.3190    3.2100   -9.3190 H   0  0  0  0  0  0  0  0  0  0  0  0
    4.1120    2.9140  -11.0930 C   0  0  2  0  0  0  0  0  0  0  0  0
    4.3770    2.2010  -11.8730 H   0  0  0  0  0  0  0  0  0  0  0  0
    3.5250    4.1710  -11.7290 C   0  0  0  0  0  0  0  0  0  0  0  0
    2.8290    4.0740  -12.7370 O   0  0  0  0  0  0  0  0  0  0  0  0
    3.0890    2.1810  -10.2000 C   0  0  0  0  0  0  0  0  0  0  0  0
    2.2390    1.8870  -10.8160 H   0  0  0  0  0  0  0  0  0  0  0  0
    3.5630    1.2900   -9.7890 H   0  0  0  0  0  0  0  0  0  0  0  0
    2.5850    3.0260   -9.0590 C   0  0  0  0  0  0  0  0  0  0  0  0
    3.2850    2.9380   -8.2280 H   0  0  0  0  0  0  0  0  0  0  0  0
    2.5440    4.0640   -9.3890 H   0  0  0  0  0  0  0  0  0  0  0  0
    1.2080    2.6210   -8.5730 C   0  0  0  0  0  0  0  0  0  0  0  0
    0.7530    3.4710   -8.0650 H   0  0  0  0  0  0  0  0  0  0  0  0
    0.6000    2.3470   -9.4350 H   0  0  0  0  0  0  0  0  0  0  0  0
    1.2480    1.4500   -7.6160 C   0  0  0  0  0  0  0  0  0  0  0  0
    2.1300    1.5540   -6.9850 H   0  0  0  0  0  0  0  0  0  0  0  0
    1.3270    0.5330   -8.2000 H   0  0  0  0  0  0  0  0  0  0  0  0
    0.0220    1.3380   -6.7120 N   0  0  0  0  0  4  0  0  0  0  0  0
   -0.0630    2.2000   -6.1370 H   0  0  0  0  0  0  0  0  0  0  0  0
   -0.8300    1.2250   -7.2980 H   0  0  0  0  0  0  0  0  0  0  0  0
    0.1270    0.5130   -6.0880 H   0  0  0  0  0  0  0  0  0  0  0  0
    3.8150    5.3320  -11.1570 N   0  0  0  0  0  0  0  0  0  0  0  0
    4.3440    5.3460  -10.2620 H   0  0  0  0  0  0  0  0  0  0  0  0
    3.4060    6.5700  -11.7600 C   0  0  2  0  0  0  0  0  0  0  0  0
    2.6010    6.3500  -12.4610 H   0  0  0  0  0  0  0  0  0  0  0  0
    4.5830    7.2000  -12.5340 C   0  0  0  0  0  3  0  0  0  0  0  0
    4.3900    7.6850  -13.6440 O   0  0  0  0  0  0  0  0  0  0  0  0
    2.8330    7.5740  -10.6990 C   0  0  0  0  0  0  0  0  0  0  0  0
    1.7520    7.4410  -10.6510 H   0  0  0  0  0  0  0  0  0  0  0  0
    3.2710    7.3350   -9.7300 H   0  0  0  0  0  0  0  0  0  0  0  0
    3.1220    9.0400  -11.0060 C   0  0  0  0  0  0  0  0  0  0  0  0
    2.4190    9.6990  -11.9770 C   0  0  0  0  0  0  0  0  0  0  0  0
    1.6340    9.1740  -12.5200 H   0  0  0  0  0  0  0  0  0  0  0  0
    4.1580    9.7400  -10.3510 C   0  0  0  0  0  0  0  0  0  0  0  0
    4.7460    9.2230   -9.5930 H   0  0  0  0  0  0  0  0  0  0  0  0
    2.7000   11.0760  -12.2930 C   0  0  0  0  0  0  0  0  0  0  0  0
    2.1060   11.5870  -13.0510 H   0  0  0  0  0  0  0  0  0  0  0  0
    4.4620   11.1120  -10.6520 C   0  0  0  0  0  0  0  0  0  0  0  0
    5.2550   11.6380  -10.1200 H   0  0  0  0  0  0  0  0  0  0  0  0
    3.7150   11.7570  -11.6450 C   0  0  0  0  0  0  0  0  0  0  0  0
    3.9630   13.0750  -12.0290 O   0  0  0  0  0  0  0  0  0  0  0  0
    3.3260   13.3360  -12.7410 H   0  0  0  0  0  0  0  0  0  0  0  0
   10.9780    6.3050   -4.9480 N   0  0  0  0  0  2  0  0  0  0  0  0
   10.1880    5.9880   -5.5450 H   0  0  0  0  0  0  0  0  0  0  0  0
   10.7200    6.5580   -3.5270 C   0  0  2  0  0  0  0  0  0  0  0  0
   10.9690    7.6020   -3.3390 H   0  0  0  0  0  0  0  0  0  0  0  0
   11.6250    5.7190   -2.6400 C   0  0  0  0  0  3  0  0  0  0  0  0
   12.2670    6.2920   -1.7970 O   0  0  0  0  0  0  0  0  0  0  0  0
    9.2040    6.4100   -3.1540 C   0  0  0  0  0  0  0  0  0  0  0  0
    8.6640    7.2090   -3.6620 H   0  0  0  0  0  0  0  0  0  0  0  0
    8.8680    5.4460   -3.5360 H   0  0  0  0  0  0  0  0  0  0  0  0
    8.8060    6.4750   -1.6050 C   0  0  0  0  0  0  0  0  0  0  0  0
    9.0730    5.5270   -1.1380 H   0  0  0  0  0  0  0  0  0  0  0  0
    9.3690    7.2810   -1.1350 H   0  0  0  0  0  0  0  0  0  0  0  0
    7.2710    6.7340   -1.3710 C   0  0  0  0  0  0  0  0  0  0  0  0
    6.9860    6.4380   -0.3620 H   0  0  0  0  0  0  0  0  0  0  0  0
    6.6770    6.1740   -2.0940 H   0  0  0  0  0  0  0  0  0  0  0  0
    7.0740    8.1750   -1.5550 N   0  0  0  0  0  0  0  0  0  0  0  0
    7.9010    8.7810   -1.3810 H   0  0  0  0  0  0  0  0  0  0  0  0
    5.9530    8.7950   -1.9200 C   0  0  0  0  0  0  0  0  0  0  0  0
    4.8300    8.1290   -2.1550 N   0  0  0  0  0  4  0  0  0  0  0  0
    4.8090    7.0940   -2.0560 H   0  0  0  0  0  0  0  0  0  0  0  0
    3.9710    8.6420   -2.4390 H   0  0  0  0  0  0  0  0  0  0  0  0
    5.9750   10.1110   -2.0680 N   0  0  0  0  0  0  0  0  0  0  0  0
    6.8550   10.6390   -1.9000 H   0  0  0  0  0  0  0  0  0  0  0  0
    5.1120   10.6170   -2.3520 H   0  0  0  0  0  0  0  0  0  0  0  0
   11.6800   13.6970    2.1500 N   0  0  0  0  0  2  0  0  0  0  0  0
   11.0060   14.3750    1.7400 H   0  0  0  0  0  0  0  0  0  0  0  0
   12.3750   12.7460    1.2760 C   0  0  2  0  0  0  0  0  0  0  0  0
   12.5890   11.8420    1.8460 H   0  0  0  0  0  0  0  0  0  0  0  0
   13.6730   13.4000    0.7880 C   0  0  0  0  0  3  0  0  0  0  0  0
   13.6690   14.3550    0.0170 O   0  0  0  0  0  0  0  0  0  0  0  0
   11.5200   12.3200    0.0890 C   0  0  0  0  0  0  0  0  0  0  0  0
   11.3570   13.1990   -0.5350 H   0  0  0  0  0  0  0  0  0  0  0  0
   12.0810   11.5750   -0.4740 H   0  0  0  0  0  0  0  0  0  0  0  0
   10.1640   11.7270    0.4160 C   0  0  0  0  0  0  0  0  0  0  0  0
   10.0310   10.3500    0.7370 C   0  0  0  0  0  0  0  0  0  0  0  0
   10.9170    9.7150    0.7680 H   0  0  0  0  0  0  0  0  0  0  0  0
    9.0060   12.5450    0.3790 C   0  0  0  0  0  0  0  0  0  0  0  0
    9.1020   13.6000    0.1210 H   0  0  0  0  0  0  0  0  0  0  0  0
    8.7740    9.8000    1.0140 C   0  0  0  0  0  0  0  0  0  0  0  0
    8.6750    8.7420    1.2580 H   0  0  0  0  0  0  0  0  0  0  0  0
    7.7410   12.0170    0.6690 C   0  0  0  0  0  0  0  0  0  0  0  0
    6.8570   12.6550    0.6610 H   0  0  0  0  0  0  0  0  0  0  0  0
    7.6340   10.6360    0.9730 C   0  0  0  0  0  0  0  0  0  0  0  0
    6.3730   10.1120    1.2340 O   0  0  0  0  0  0  0  0  0  0  0  0
    6.4530    9.1450    1.4290 H   0  0  0  0  0  0  0  0  0  0  0  0
    6.8140   13.4770   -8.2220 H   0  0  0  0  0  0  0  0  0  0  0  0
   -8.7350    4.5970   -6.3320 H   0  0  0  0  0  0  0  0  0  0  0  0
  1  2  1  0
  1  3  1  0
  3  4  1  6
  3  5  1  0
  3  7  1  0
  5  6  2  0
  7  8  1  0
  7  9  1  0
  7 10  1  0
 10 11  2  0
 10 12  1  0
 12250  1  0
 13 14  1  0
 13 15  1  0
 15 16  1  6
 15 17  1  0
 15 19  1  0
 17 18  2  0
 17 24  1  0
 19 20  1  0
 19 21  1  0
 19 22  1  0
 22 23  1  0
 24 25  1  0
 24 26  1  0
 26 27  1  1
 26 28  1  0
 26 30  1  0
 28 29  2  0
 28 35  1  0
 30 31  1  0
 30 32  1  0
 30 33  1  0
 33 34  1  0
 35 36  1  0
 35 37  1  0
 37 38  1  6
 37 39  1  0
 37 41  1  0
 39 40  2  0
 41 42  1  0
 41 43  1  0
 41 44  1  0
 44 45  2  0
 44 47  1  0
 45 46  1  0
 45 49  1  0
 47 48  1  0
 47 51  2  0
 49 50  1  0
 49 53  2  0
 51 52  1  0
 51 53  1  0
 53 54  1  0
 55 56  1  0
 55 57  1  0
 57 58  1  6
 57 59  1  0
 57 61  1  0
 59 60  2  0
 61 62  1  0
 61 63  1  0
 61 67  1  0
 63 64  1  0
 63 65  1  0
 63 66  1  0
 67 68  1  0
 67 69  1  0
 67 70  1  0
 71 72  1  0
 71 73  1  0
 73 74  1  1
 73 75  1  0
 73 77  1  0
 75 76  2  0
 77 78  1  6
 77 79  1  0
 77 82  1  0
 79 80  1  0
 79 81  1  0
 79 86  1  0
 82 83  1  0
 82 84  1  0
 82 85  1  0
 86 87  1  0
 86 88  1  0
 86 89  1  0
 90 91  1  0
 90 92  1  0
 92 93  1  6
 92 94  1  0
 92 96  1  0
 94 95  2  0
 96 97  1  0
 96 98  1  0
 96 99  1  0
 99100  1  0
 99101  2  0
100103  2  0
101102  1  0
101105  1  0
103104  1  0
103105  1  0
105251  1  0
106107  1  0
106108  1  0
108109  1  1
108110  1  0
108112  1  0
110111  2  0
112113  1  0
112114  1  0
112118  1  0
114115  1  0
114116  1  0
114117  1  0
118119  1  0
118120  1  0
118121  1  0
122123  1  0
122124  1  0
124125  1  1
124126  1  0
124128  1  0
126127  2  0
126132  1  0
128129  1  0
128130  1  0
128131  1  0
132133  1  0
132134  1  0
134135  1  1
134136  1  0
134138  1  0
136137  2  0
136143  1  0
138139  1  0
138140  1  0
138141  1  0
141142  1  0
143144  1  0
143145  1  0
145146  1  1
145147  1  0
145149  1  0
147148  2  0
149150  1  0
149151  1  0
149152  1  0
152153  1  0
152154  1  0
152158  1  0
154155  1  0
154156  1  0
154157  1  0
158159  1  0
158160  1  0
158161  1  0
162163  1  0
162164  1  0
164165  1  6
164166  1  0
164168  1  0
166167  2  0
166184  1  0
168169  1  0
168170  1  0
168171  1  0
171172  1  0
171173  1  0
171174  1  0
174175  1  0
174176  1  0
174177  1  0
177178  1  0
177179  1  0
177180  1  0
180181  1  0
180182  1  0
180183  1  0
184185  1  0
184186  1  0
186187  1  6
186188  1  0
186190  1  0
188189  2  0
190191  1  0
190192  1  0
190193  1  0
193194  2  0
193196  1  0
194195  1  0
194198  1  0
196197  1  0
196200  2  0
198199  1  0
198202  2  0
200201  1  0
200202  1  0
202203  1  0
203204  1  0
205206  1  0
205207  1  0
207208  1  6
207209  1  0
207211  1  0
209210  2  0
211212  1  0
211213  1  0
211214  1  0
214215  1  0
214216  1  0
214217  1  0
217218  1  0
217219  1  0
217220  1  0
220221  1  0
220222  1  0
222223  2  0
222226  1  0
223224  1  0
223225  1  0
226227  1  0
226228  1  0
229230  1  0
229231  1  0
231232  1  1
231233  1  0
231235  1  0
233234  2  0
235236  1  0
235237  1  0
235238  1  0
238239  2  0
238241  1  0
239240  1  0
239243  1  0
241242  1  0
241245  2  0
243244  1  0
243247  2  0
245246  1  0
245247  1  0
247248  1  0
248249  1  0
M  RAD  8   1   2   5   2  13   2  39   2  55   2  59   2  71   2  75   2
M  RAD  8  90   2  94   2 106   2 110   2 122   2 147   2 162   2 188   2
M  CHG  2 180   1 223   1
M  RAD  4 205   2 209   2 229   2 233   2
M  END
$$$$

     RDKit          3D

251245  0  0  0  0  0  0  0  0999 V2000
    8.2390   15.7430  -10.2460 N   0  0  0  0  0  2  0  0  0  0  0  0
    8.4060   14.8450   -9.7480 H   0  0  0  0  0  0  0  0  0  0  0  0
    7.1270   16.5820   -9.8330 C   0  0  2  0  0  0  0  0  0  0  0  0
    6.5240   16.7530  -10.7240 H   0  0  0  0  0  0  0  0  0  0  0  0
    7.5010   17.9630   -9.3590 C   0  0  0  0  0  3  0  0  0  0  0  0
    8.3130   18.1090   -8.4540 O   0  0  0  0  0  0  0  0  0  0  0  0
    6.3630   15.8620   -8.7680 C   0  0  0  0  0  0  0  0  0  0  0  0
    7.0440   15.5910   -7.9610 H   0  0  0  0  0  0  0  0  0  0  0  0
    5.5850   16.5200   -8.3800 H   0  0  0  0  0  0  0  0  0  0  0  0
    5.7360   14.6350   -9.3040 C   0  0  0  0  0  0  0  0  0  0  0  0
    4.8520   14.7920  -10.1880 O   0  0  0  0  0  0  0  0  0  0  0  0
    6.1520   13.5130   -8.8840 O   0  0  0  0  0  0  0  0  0  0  0  0
    1.6580   16.8130  -11.9920 N   0  0  0  0  0  2  0  0  0  0  0  0
    2.3630   16.6600  -11.2430 H   0  0  0  0  0  0  0  0  0  0  0  0
    0.5750   15.8710  -12.1280 C   0  0  2  0  0  0  0  0  0  0  0  0
    0.1290   15.9910  -13.1150 H   0  0  0  0  0  0  0  0  0  0  0  0
   -0.5220   16.1130  -11.1130 C   0  0  0  0  0  0  0  0  0  0  0  0
   -0.2990   16.7340  -10.0760 O   0  0  0  0  0  0  0  0  0  0  0  0
    1.1300   14.4960  -11.9520 C   0  0  0  0  0  0  0  0  0  0  0  0
    0.3140   13.7740  -11.9180 H   0  0  0  0  0  0  0  0  0  0  0  0
    1.6970   14.4460  -11.0220 H   0  0  0  0  0  0  0  0  0  0  0  0
    1.9940   14.1960  -13.0610 O   0  0  0  0  0  0  0  0  0  0  0  0
    2.3660   13.2850  -12.9510 H   0  0  0  0  0  0  0  0  0  0  0  0
   -1.7070   15.5990  -11.3820 N   0  0  0  0  0  0  0  0  0  0  0  0
   -1.8300   15.0390  -12.2500 H   0  0  0  0  0  0  0  0  0  0  0  0
   -2.8500   15.7940  -10.4960 C   0  0  2  0  0  0  0  0  0  0  0  0
   -2.4940   15.6940   -9.4710 H   0  0  0  0  0  0  0  0  0  0  0  0
   -3.9360   14.7420  -10.7100 C   0  0  0  0  0  0  0  0  0  0  0  0
   -4.1170   14.2150  -11.8220 O   0  0  0  0  0  0  0  0  0  0  0  0
   -3.4310   17.1680  -10.7260 C   0  0  0  0  0  0  0  0  0  0  0  0
   -3.6970   17.2780  -11.7770 H   0  0  0  0  0  0  0  0  0  0  0  0
   -2.6920   17.9230  -10.4590 H   0  0  0  0  0  0  0  0  0  0  0  0
   -4.5930   17.3400   -9.9250 O   0  0  0  0  0  0  0  0  0  0  0  0
   -4.9690   18.2430  -10.0800 H   0  0  0  0  0  0  0  0  0  0  0  0
   -4.6520   14.4140   -9.6350 N   0  0  0  0  0  0  0  0  0  0  0  0
   -4.3590   14.7920   -8.7110 H   0  0  0  0  0  0  0  0  0  0  0  0
   -5.8320   13.5460   -9.6910 C   0  0  2  0  0  0  0  0  0  0  0  0
   -5.6450   12.7780  -10.4420 H   0  0  0  0  0  0  0  0  0  0  0  0
   -7.0770   14.3290  -10.1220 C   0  0  0  0  0  3  0  0  0  0  0  0
   -8.0250   13.7390  -10.5890 O   0  0  0  0  0  0  0  0  0  0  0  0
   -6.0610   12.8570   -8.3570 C   0  0  0  0  0  0  0  0  0  0  0  0
   -5.9730   13.6020   -7.5670 H   0  0  0  0  0  0  0  0  0  0  0  0
   -7.0700   12.4440   -8.3540 H   0  0  0  0  0  0  0  0  0  0  0  0
   -5.0730   11.7210   -8.0610 C   0  0  0  0  0  0  0  0  0  0  0  0
   -4.0720   11.8810   -7.1020 C   0  0  0  0  0  0  0  0  0  0  0  0
   -3.9860   12.8270   -6.5670 H   0  0  0  0  0  0  0  0  0  0  0  0
   -5.1740   10.4980   -8.7080 C   0  0  0  0  0  0  0  0  0  0  0  0
   -5.9560   10.3530   -9.4530 H   0  0  0  0  0  0  0  0  0  0  0  0
   -3.1820   10.8480   -6.8190 C   0  0  0  0  0  0  0  0  0  0  0  0
   -2.4060   10.9870   -6.0660 H   0  0  0  0  0  0  0  0  0  0  0  0
   -4.2920    9.4420   -8.4250 C   0  0  0  0  0  0  0  0  0  0  0  0
   -4.4060    8.4830   -8.9310 H   0  0  0  0  0  0  0  0  0  0  0  0
   -3.2860    9.6220   -7.5080 C   0  0  0  0  0  0  0  0  0  0  0  0
   -2.5720    8.8220   -7.3140 H   0  0  0  0  0  0  0  0  0  0  0  0
   -3.3140    5.0230  -13.0570 N   0  0  0  0  0  2  0  0  0  0  0  0
   -4.1400    5.6150  -12.8370 H   0  0  0  0  0  0  0  0  0  0  0  0
   -2.5170    4.4610  -11.9940 C   0  0  2  0  0  0  0  0  0  0  0  0
   -1.7250    3.8470  -12.4230 H   0  0  0  0  0  0  0  0  0  0  0  0
   -3.4380    3.6400  -11.1070 C   0  0  0  0  0  3  0  0  0  0  0  0
   -4.4710    4.1900  -10.6370 O   0  0  0  0  0  0  0  0  0  0  0  0
   -1.8540    5.5840  -11.1350 C   0  0  0  0  0  0  0  0  0  0  0  0
   -2.6490    6.2450  -10.7900 H   0  0  0  0  0  0  0  0  0  0  0  0
   -1.1450    4.9970   -9.9330 C   0  0  0  0  0  0  0  0  0  0  0  0
   -1.8650    4.4610   -9.3150 H   0  0  0  0  0  0  0  0  0  0  0  0
   -0.3700    4.3090  -10.2700 H   0  0  0  0  0  0  0  0  0  0  0  0
   -0.6920    5.8000   -9.3520 H   0  0  0  0  0  0  0  0  0  0  0  0
   -0.8790    6.3820  -11.9530 C   0  0  0  0  0  0  0  0  0  0  0  0
   -0.0980    5.7220  -12.3300 H   0  0  0  0  0  0  0  0  0  0  0  0
   -1.4020    6.8440  -12.7900 H   0  0  0  0  0  0  0  0  0  0  0  0
   -0.4320    7.1570  -11.3300 H   0  0  0  0  0  0  0  0  0  0  0  0
   -4.5210    2.0210   -7.7850 N   0  0  0  0  0  2  0  0  0  0  0  0
   -5.4600    2.1270   -8.2190 H   0  0  0  0  0  0  0  0  0  0  0  0
   -4.3760    2.2860   -6.3400 C   0  0  2  0  0  0  0  0  0  0  0  0
   -3.3700    1.9630   -6.0710 H   0  0  0  0  0  0  0  0  0  0  0  0
   -5.3740    1.4700   -5.5200 C   0  0  0  0  0  3  0  0  0  0  0  0
   -6.6090    1.7400   -5.5300 O   0  0  0  0  0  0  0  0  0  0  0  0
   -4.4620    3.8040   -5.9870 C   0  0  2  0  0  0  0  0  0  0  0  0
   -5.4400    4.1780   -6.2900 H   0  0  0  0  0  0  0  0  0  0  0  0
   -3.3750    4.5860   -6.7450 C   0  0  0  0  0  0  0  0  0  0  0  0
   -2.4260    4.4330   -6.2310 H   0  0  0  0  0  0  0  0  0  0  0  0
   -3.3090    4.1820   -7.7550 H   0  0  0  0  0  0  0  0  0  0  0  0
   -4.3050    4.0130   -4.4580 C   0  0  0  0  0  0  0  0  0  0  0  0
   -5.1000    3.4810   -3.9360 H   0  0  0  0  0  0  0  0  0  0  0  0
   -3.3370    3.6280   -4.1370 H   0  0  0  0  0  0  0  0  0  0  0  0
   -4.3670    5.0770   -4.2300 H   0  0  0  0  0  0  0  0  0  0  0  0
   -3.6210    6.0930   -6.8510 C   0  0  0  0  0  0  0  0  0  0  0  0
   -4.5590    6.2710   -7.3760 H   0  0  0  0  0  0  0  0  0  0  0  0
   -3.6760    6.5220   -5.8510 H   0  0  0  0  0  0  0  0  0  0  0  0
   -2.8020    6.5560   -7.4010 H   0  0  0  0  0  0  0  0  0  0  0  0
   -7.1030    4.9550  -11.2140 N   0  0  0  0  0  2  0  0  0  0  0  0
   -6.1220    4.6450  -11.0650 H   0  0  0  0  0  0  0  0  0  0  0  0
   -7.3690    6.3930  -11.2260 C   0  0  2  0  0  0  0  0  0  0  0  0
   -8.4260    6.5500  -11.4390 H   0  0  0  0  0  0  0  0  0  0  0  0
   -6.5510    7.1110  -12.3230 C   0  0  0  0  0  3  0  0  0  0  0  0
   -5.3670    6.8340  -12.4820 O   0  0  0  0  0  0  0  0  0  0  0  0
   -6.9990    6.9690   -9.8590 C   0  0  0  0  0  0  0  0  0  0  0  0
   -5.9460    6.7590   -9.6690 H   0  0  0  0  0  0  0  0  0  0  0  0
   -7.1550    8.0480   -9.8840 H   0  0  0  0  0  0  0  0  0  0  0  0
   -7.8100    6.3970   -8.7320 C   0  0  0  0  0  0  0  0  0  0  0  0
   -9.1120    6.7880   -8.4820 N   0  0  0  0  0  0  0  0  0  0  0  0
   -7.5200    5.4300   -7.8250 C   0  0  0  0  0  0  0  0  0  0  0  0
   -6.5730    4.9000   -7.7210 H   0  0  0  0  0  0  0  0  0  0  0  0
   -9.5840    6.0790   -7.4730 C   0  0  0  0  0  0  0  0  0  0  0  0
  -10.5840    6.1660   -7.0470 H   0  0  0  0  0  0  0  0  0  0  0  0
   -8.6430    5.2470   -7.0660 N   0  0  0  0  0  0  0  0  0  0  0  0
   -4.3430    9.9870  -13.8600 N   0  0  0  0  0  2  0  0  0  0  0  0
   -3.9430    9.2670  -14.4950 H   0  0  0  0  0  0  0  0  0  0  0  0
   -3.4660   11.0950  -13.4060 C   0  0  2  0  0  0  0  0  0  0  0  0
   -3.9980   11.6020  -12.6010 H   0  0  0  0  0  0  0  0  0  0  0  0
   -3.1980   12.0700  -14.5610 C   0  0  0  0  0  3  0  0  0  0  0  0
   -2.6940   11.6660  -15.6100 O   0  0  0  0  0  0  0  0  0  0  0  0
   -2.1230   10.5980  -12.8370 C   0  0  0  0  0  0  0  0  0  0  0  0
   -1.6160   10.0380  -13.6230 H   0  0  0  0  0  0  0  0  0  0  0  0
   -1.2160   11.7770  -12.4230 C   0  0  0  0  0  0  0  0  0  0  0  0
   -1.0140   12.4010  -13.2930 H   0  0  0  0  0  0  0  0  0  0  0  0
   -1.7190   12.3690  -11.6580 H   0  0  0  0  0  0  0  0  0  0  0  0
   -0.2780   11.3900  -12.0260 H   0  0  0  0  0  0  0  0  0  0  0  0
   -2.3600    9.6900  -11.6480 C   0  0  0  0  0  0  0  0  0  0  0  0
   -2.8940   10.2400  -10.8730 H   0  0  0  0  0  0  0  0  0  0  0  0
   -2.9540    8.8310  -11.9610 H   0  0  0  0  0  0  0  0  0  0  0  0
   -1.4020    9.3470  -11.2570 H   0  0  0  0  0  0  0  0  0  0  0  0
   10.6540   11.3050   -5.5760 N   0  0  0  0  0  2  0  0  0  0  0  0
   10.3920   12.2850   -5.8030 H   0  0  0  0  0  0  0  0  0  0  0  0
   10.0940   10.6720   -4.3490 C   0  0  2  0  0  0  0  0  0  0  0  0
   10.8680    9.9920   -3.9930 H   0  0  0  0  0  0  0  0  0  0  0  0
    8.8430    9.8410   -4.6350 C   0  0  0  0  0  0  0  0  0  0  0  0
    8.3760    9.1070   -3.7350 O   0  0  0  0  0  0  0  0  0  0  0  0
    9.8210   11.6790   -3.2540 C   0  0  0  0  0  0  0  0  0  0  0  0
   10.7510   12.1790   -2.9810 H   0  0  0  0  0  0  0  0  0  0  0  0
    9.1020   12.4160   -3.6110 H   0  0  0  0  0  0  0  0  0  0  0  0
    9.4140   11.1650   -2.3830 H   0  0  0  0  0  0  0  0  0  0  0  0
    8.3280    9.9240   -5.8760 N   0  0  0  0  0  0  0  0  0  0  0  0
    8.8050   10.5390   -6.5650 H   0  0  0  0  0  0  0  0  0  0  0  0
    7.1420    9.2010   -6.3060 C   0  0  2  0  0  0  0  0  0  0  0  0
    6.4000    9.3360   -5.5190 H   0  0  0  0  0  0  0  0  0  0  0  0
    7.4250    7.7530   -6.4980 C   0  0  0  0  0  0  0  0  0  0  0  0
    8.5700    7.2700   -6.4620 O   0  0  0  0  0  0  0  0  0  0  0  0
    6.6180    9.7450   -7.6390 C   0  0  0  0  0  0  0  0  0  0  0  0
    5.6190    9.3460   -7.8150 H   0  0  0  0  0  0  0  0  0  0  0  0
    7.2840    9.4210   -8.4390 H   0  0  0  0  0  0  0  0  0  0  0  0
    6.5530   11.1910   -7.6390 O   0  0  0  0  0  0  0  0  0  0  0  0
    6.2110   11.5050   -8.5140 H   0  0  0  0  0  0  0  0  0  0  0  0
    6.3550    7.0580   -6.8100 N   0  0  0  0  0  0  0  0  0  0  0  0
    5.4610    7.5640   -6.9720 H   0  0  0  0  0  0  0  0  0  0  0  0
    6.3700    5.6400   -6.9350 C   0  0  2  0  0  0  0  0  0  0  0  0
    7.1620    5.1570   -6.3640 H   0  0  0  0  0  0  0  0  0  0  0  0
    6.5790    5.3360   -8.4090 C   0  0  0  0  0  3  0  0  0  0  0  0
    6.0940    6.0730   -9.2600 O   0  0  0  0  0  0  0  0  0  0  0  0
    5.0220    5.1190   -6.4090 C   0  0  0  0  0  0  0  0  0  0  0  0
    4.2350    5.7010   -6.8870 H   0  0  0  0  0  0  0  0  0  0  0  0
    4.9330    4.0750   -6.7090 H   0  0  0  0  0  0  0  0  0  0  0  0
    4.7900    5.1880   -4.8740 C   0  0  0  0  0  0  0  0  0  0  0  0
    5.0100    6.2120   -4.5710 H   0  0  0  0  0  0  0  0  0  0  0  0
    3.3110    4.7880   -4.5700 C   0  0  0  0  0  0  0  0  0  0  0  0
    2.6380    5.4790   -5.0770 H   0  0  0  0  0  0  0  0  0  0  0  0
    3.1300    3.7740   -4.9260 H   0  0  0  0  0  0  0  0  0  0  0  0
    3.1370    4.8330   -3.4950 H   0  0  0  0  0  0  0  0  0  0  0  0
    5.7270    4.2640   -4.0560 C   0  0  0  0  0  0  0  0  0  0  0  0
    5.5710    3.2290   -4.3610 H   0  0  0  0  0  0  0  0  0  0  0  0
    6.7640    4.5460   -4.2400 H   0  0  0  0  0  0  0  0  0  0  0  0
    5.5030    4.3690   -2.9940 H   0  0  0  0  0  0  0  0  0  0  0  0
    5.3050    3.2970  -10.3550 N   0  0  0  0  0  2  0  0  0  0  0  0
    5.3190    3.2100   -9.3190 H   0  0  0  0  0  0  0  0  0  0  0  0
    4.1120    2.9140  -11.0930 C   0  0  2  0  0  0  0  0  0  0  0  0
    4.3770    2.2010  -11.8730 H   0  0  0  0  0  0  0  0  0  0  0  0
    3.5250    4.1710  -11.7290 C   0  0  0  0  0  0  0  0  0  0  0  0
    2.8290    4.0740  -12.7370 O   0  0  0  0  0  0  0  0  0  0  0  0
    3.0890    2.1810  -10.2000 C   0  0  0  0  0  0  0  0  0  0  0  0
    2.2390    1.8870  -10.8160 H   0  0  0  0  0  0  0  0  0  0  0  0
    3.5630    1.2900   -9.7890 H   0  0  0  0  0  0  0  0  0  0  0  0
    2.5850    3.0260   -9.0590 C   0  0  0  0  0  0  0  0  0  0  0  0
    3.2850    2.9380   -8.2280 H   0  0  0  0  0  0  0  0  0  0  0  0
    2.5440    4.0640   -9.3890 H   0  0  0  0  0  0  0  0  0  0  0  0
    1.2080    2.6210   -8.5730 C   0  0  0  0  0  0  0  0  0  0  0  0
    0.7530    3.4710   -8.0650 H   0  0  0  0  0  0  0  0  0  0  0  0
    0.6000    2.3470   -9.4350 H   0  0  0  0  0  0  0  0  0  0  0  0
    1.2480    1.4500   -7.6160 C   0  0  0  0  0  0  0  0  0  0  0  0
    2.1300    1.5540   -6.9850 H   0  0  0  0  0  0  0  0  0  0  0  0
    1.3270    0.5330   -8.2000 H   0  0  0  0  0  0  0  0  0  0  0  0
    0.0220    1.3380   -6.7120 N   0  0  0  0  0  4  0  0  0  0  0  0
   -0.0630    2.2000   -6.1370 H   0  0  0  0  0  0  0  0  0  0  0  0
   -0.8300    1.2250   -7.2980 H   0  0  0  0  0  0  0  0  0  0  0  0
    0.1270    0.5130   -6.0880 H   0  0  0  0  0  0  0  0  0  0  0  0
    3.8150    5.3320  -11.1570 N   0  0  0  0  0  0  0  0  0  0  0  0
    4.3440    5.3460  -10.2620 H   0  0  0  0  0  0  0  0  0  0  0  0
    3.4060    6.5700  -11.7600 C   0  0  2  0  0  0  0  0  0  0  0  0
    2.6010    6.3500  -12.4610 H   0  0  0  0  0  0  0  0  0  0  0  0
    4.5830    7.2000  -12.5340 C   0  0  0  0  0  3  0  0  0  0  0  0
    4.3900    7.6850  -13.6440 O   0  0  0  0  0  0  0  0  0  0  0  0
    2.8330    7.5740  -10.6990 C   0  0  0  0  0  0  0  0  0  0  0  0
    1.7520    7.4410  -10.6510 H   0  0  0  0  0  0  0  0  0  0  0  0
    3.2710    7.3350   -9.7300 H   0  0  0  0  0  0  0  0  0  0  0  0
    3.1220    9.0400  -11.0060 C   0  0  0  0  0  0  0  0  0  0  0  0
    2.4190    9.6990  -11.9770 C   0  0  0  0  0  0  0  0  0  0  0  0
    1.6340    9.1740  -12.5200 H   0  0  0  0  0  0  0  0  0  0  0  0
    4.1580    9.7400  -10.3510 C   0  0  0  0  0  0  0  0  0  0  0  0
    4.7460    9.2230   -9.5930 H   0  0  0  0  0  0  0  0  0  0  0  0
    2.7000   11.0760  -12.2930 C   0  0  0  0  0  0  0  0  0  0  0  0
    2.1060   11.5870  -13.0510 H   0  0  0  0  0  0  0  0  0  0  0  0
    4.4620   11.1120  -10.6520 C   0  0  0  0  0  0  0  0  0  0  0  0
    5.2550   11.6380  -10.1200 H   0  0  0  0  0  0  0  0  0  0  0  0
    3.7150   11.7570  -11.6450 C   0  0  0  0  0  0  0  0  0  0  0  0
    3.9630   13.0750  -12.0290 O   0  0  0  0  0  0  0  0  0  0  0  0
    3.3260   13.3360  -12.7410 H   0  0  0  0  0  0  0  0  0  0  0  0
   10.9780    6.3050   -4.9480 N   0  0  0  0  0  2  0  0  0  0  0  0
   10.1880    5.9880   -5.5450 H   0  0  0  0  0  0  0  0  0  0  0  0
   10.7200    6.5580   -3.5270 C   0  0  2  0  0  0  0  0  0  0  0  0
   10.9690    7.6020   -3.3390 H   0  0  0  0  0  0  0  0  0  0  0  0
   11.6250    5.7190   -2.6400 C   0  0  0  0  0  3  0  0  0  0  0  0
   12.2670    6.2920   -1.7970 O   0  0  0  0  0  0  0  0  0  0  0  0
    9.2040    6.4100   -3.1540 C   0  0  0  0  0  0  0  0  0  0  0  0
    8.6640    7.2090   -3.6620 H   0  0  0  0  0  0  0  0  0  0  0  0
    8.8680    5.4460   -3.5360 H   0  0  0  0  0  0  0  0  0  0  0  0
    8.8060    6.4750   -1.6050 C   0  0  0  0  0  0  0  0  0  0  0  0
    9.0730    5.5270   -1.1380 H   0  0  0  0  0  0  0  0  0  0  0  0
    9.3690    7.2810   -1.1350 H   0  0  0  0  0  0  0  0  0  0  0  0
    7.2710    6.7340   -1.3710 C   0  0  0  0  0  0  0  0  0  0  0  0
    6.9860    6.4380   -0.3620 H   0  0  0  0  0  0  0  0  0  0  0  0
    6.6770    6.1740   -2.0940 H   0  0  0  0  0  0  0  0  0  0  0  0
    7.0740    8.1750   -1.5550 N   0  0  0  0  0  0  0  0  0  0  0  0
    7.9010    8.7810   -1.3810 H   0  0  0  0  0  0  0  0  0  0  0  0
    5.9530    8.7950   -1.9200 C   0  0  0  0  0  0  0  0  0  0  0  0
    4.8300    8.1290   -2.1550 N   0  0  0  0  0  4  0  0  0  0  0  0
    4.8090    7.0940   -2.0560 H   0  0  0  0  0  0  0  0  0  0  0  0
    3.9710    8.6420   -2.4390 H   0  0  0  0  0  0  0  0  0  0  0  0
    5.9750   10.1110   -2.0680 N   0  0  0  0  0  0  0  0  0  0  0  0
    6.8550   10.6390   -1.9000 H   0  0  0  0  0  0  0  0  0  0  0  0
    5.1120   10.6170   -2.3520 H   0  0  0  0  0  0  0  0  0  0  0  0
   11.6800   13.6970    2.1500 N   0  0  0  0  0  2  0  0  0  0  0  0
   11.0060   14.3750    1.7400 H   0  0  0  0  0  0  0  0  0  0  0  0
   12.3750   12.7460    1.2760 C   0  0  2  0  0  0  0  0  0  0  0  0
   12.5890   11.8420    1.8460 H   0  0  0  0  0  0  0  0  0  0  0  0
   13.6730   13.4000    0.7880 C   0  0  0  0  0  3  0  0  0  0  0  0
   13.6690   14.3550    0.0170 O   0  0  0  0  0  0  0  0  0  0  0  0
   11.5200   12.3200    0.0890 C   0  0  0  0  0  0  0  0  0  0  0  0
   11.3570   13.1990   -0.5350 H   0  0  0  0  0  0  0  0  0  0  0  0
   12.0810   11.5750   -0.4740 H   0  0  0  0  0  0  0  0  0  0  0  0
   10.1640   11.7270    0.4160 C   0  0  0  0  0  0  0  0  0  0  0  0
   10.0310   10.3500    0.7370 C   0  0  0  0  0  0  0  0  0  0  0  0
   10.9170    9.7150    0.7680 H   0  0  0  0  0  0  0  0  0  0  0  0
    9.0060   12.5450    0.3790 C   0  0  0  0  0  0  0  0  0  0  0  0
    9.1020   13.6000    0.1210 H   0  0  0  0  0  0  0  0  0  0  0  0
    8.7740    9.8000    1.0140 C   0  0  0  0  0  0  0  0  0  0  0  0
    8.6750    8.7420    1.2580 H   0  0  0  0  0  0  0  0  0  0  0  0
    7.7410   12.0170    0.6690 C   0  0  0  0  0  0  0  0  0  0  0  0
    6.8570   12.6550    0.6610 H   0  0  0  0  0  0  0  0  0  0  0  0
    7.6340   10.6360    0.9730 C   0  0  0  0  0  0  0  0  0  0  0  0
    6.3730   10.1120    1.2340 O   0  0  0  0  0  0  0  0  0  0  0  0
    6.4530    9.1450    1.4290 H   0  0  0  0  0  0  0  0  0  0  0  0
    6.8140   13.4770   -8.2220 H   0  0  0  0  0  0  0  0  0  0  0  0
   -8.7350    4.5970   -6.3320 H   0  0  0  0  0  0  0  0  0  0  0  0
  1  2  1  0
  1  3  1  0
  3  4  1  6
  3  5  1  0
  3  7  1  0
  5  6  2  0
  7  8  1  0
  7  9  1  0
  7 10  1  0
 10 11  2  0
 10 12  1  0
 12250  1  0
 13 14  1  0
 13 15  1  0
 15 16  1  6
 15 17  1  0
 15 19  1  0
 17 18  2  0
 17 24  1  0
 19 20  1  0
 19 21  1  0
 19 22  1  0
 22 23  1  0
 24 25  1  0
 24 26  1  0
 26 27  1  1
 26 28  1  0
 26 30  1  0
 28 29  2  0
 28 35  1  0
 30 31  1  0
 30 32  1  0
 30 33  1  0
 33 34  1  0
 35 36  1  0
 35 37  1  0
 37 38  1  6
 37 39  1  0
 37 41  1  0
 39 40  2  0
 41 42  1  0
 41 43  1  0
 41 44  1  0
 44 45  2  0
 44 47  1  0
 45 46  1  0
 45 49  1  0
 47 48  1  0
 47 51  2  0
 49 50  1  0
 49 53  2  0
 51 52  1  0
 51 53  1  0
 53 54  1  0
 55 56  1  0
 55 57  1  0
 57 58  1  6
 57 59  1  0
 57 61  1  0
 59 60  2  0
 61 62  1  0
 61 63  1  0
 61 67  1  0
 63 64  1  0
 63 65  1  0
 63 66  1  0
 67 68  1  0
 67 69  1  0
 67 70  1  0
 71 72  1  0
 71 73  1  0
 73 74  1  1
 73 75  1  0
 73 77  1  0
 75 76  2  0
 77 78  1  6
 77 79  1  0
 77 82  1  0
 79 80  1  0
 79 81  1  0
 79 86  1  0
 82 83  1  0
 82 84  1  0
 82 85  1  0
 86 87  1  0
 86 88  1  0
 86 89  1  0
 90 91  1  0
 90 92  1  0
 92 93  1  6
 92 94  1  0
 92 96  1  0
 94 95  2  0
 96 97  1  0
 96 98  1  0
 96 99  1  0
 99100  1  0
 99101  2  0
100103  2  0
101102  1  0
101105  1  0
103104  1  0
103105  1  0
105251  1  0
106107  1  0
106108  1  0
108109  1  1
108110  1  0
108112  1  0
110111  2  0
112113  1  0
112114  1  0
112118  1  0
114115  1  0
114116  1  0
114117  1  0
118119  1  0
118120  1  0
118121  1  0
122123  1  0
122124  1  0
124125  1  1
124126  1  0
124128  1  0
126127  2  0
126132  1  0
128129  1  0
128130  1  0
128131  1  0
132133  1  0
132134  1  0
134135  1  1
134136  1  0
134138  1  0
136137  2  0
136143  1  0
138139  1  0
138140  1  0
138141  1  0
141142  1  0
143144  1  0
143145  1  0
145146  1  1
145147  1  0
145149  1  0
147148  2  0
149150  1  0
149151  1  0
149152  1  0
152153  1  0
152154  1  0
152158  1  0
154155  1  0
154156  1  0
154157  1  0
158159  1  0
158160  1  0
158161  1  0
162163  1  0
162164  1  0
164165  1  6
164166  1  0
164168  1  0
166167  2  0
166184  1  0
168169  1  0
168170  1  0
168171  1  0
171172  1  0
171173  1  0
171174  1  0
174175  1  0
174176  1  0
174177  1  0
177178  1  0
177179  1  0
177180  1  0
180181  1  0
180182  1  0
180183  1  0
184185  1  0
184186  1  0
186187  1  6
186188  1  0
186190  1  0
188189  2  0
190191  1  0
190192  1  0
190193  1  0
193194  2  0
193196  1  0
194195  1  0
194198  1  0
196197  1  0
196200  2  0
198199  1  0
198202  2  0
200201  1  0
200202  1  0
202203  1  0
203204  1  0
205206  1  0
205207  1  0
207208  1  6
207209  1  0
207211  1  0
209210  2  0
211212  1  0
211213  1  0
211214  1  0
214215  1  0
214216  1  0
214217  1  0
217218  1  0
217219  1  0
217220  1  0
220221  1  0
220222  1  0
222223  2  0
222226  1  0
223224  1  0
223225  1  0
226227  1  0
226228  1  0
229230  1  0
229231  1  0
231232  1  1
231233  1  0
231235  1  0
233234  2  0
235236  1  0
235237  1  0
235238  1  0
238239  2  0
238241  1  0
239240  1  0
239243  1  0
241242  1  0
241245  2  0
243244  1  0
243247  2  0
245246  1  0
245247  1  0
247248  1  0
248249  1  0
M  RAD  8   1   2   5   2  13   2  39   2  55   2  59   2  71   2  75   2
M  RAD  8  90   2  94   2 106   2 110   2 122   2 147   2 162   2 188   2
M  CHG  2 180   1 223   1
M  RAD  4 205   2 209   2 229   2 233   2
M  END
$$$$

     RDKit          3D

251245  0  0  0  0  0  0  0  0999 V2000
    8.2390   15.7430  -10.2460 N   0  0  0  0  0  2  0  0  0  0  0  0
    8.4060   14.8450   -9.7480 H   0  0  0  0  0  0  0  0  0  0  0  0
    7.1270   16.5820   -9.8330 C   0  0  2  0  0  0  0  0  0  0  0  0
    6.5240   16.7530  -10.7240 H   0  0  0  0  0  0  0  0  0  0  0  0
    7.5010   17.9630   -9.3590 C   0  0  0  0  0  3  0  0  0  0  0  0
    8.3130   18.1090   -8.4540 O   0  0  0  0  0  0  0  0  0  0  0  0
    6.3630   15.8620   -8.7680 C   0  0  0  0  0  0  0  0  0  0  0  0
    7.0440   15.5910   -7.9610 H   0  0  0  0  0  0  0  0  0  0  0  0
    5.5850   16.5200   -8.3800 H   0  0  0  0  0  0  0  0  0  0  0  0
    5.7360   14.6350   -9.3040 C   0  0  0  0  0  0  0  0  0  0  0  0
    4.8520   14.7920  -10.1880 O   0  0  0  0  0  0  0  0  0  0  0  0
    6.1520   13.5130   -8.8840 O   0  0  0  0  0  0  0  0  0  0  0  0
    1.6580   16.8130  -11.9920 N   0  0  0  0  0  2  0  0  0  0  0  0
    2.3630   16.6600  -11.2430 H   0  0  0  0  0  0  0  0  0  0  0  0
    0.5750   15.8710  -12.1280 C   0  0  2  0  0  0  0  0  0  0  0  0
    0.1290   15.9910  -13.1150 H   0  0  0  0  0  0  0  0  0  0  0  0
   -0.5220   16.1130  -11.1130 C   0  0  0  0  0  0  0  0  0  0  0  0
   -0.2990   16.7340  -10.0760 O   0  0  0  0  0  0  0  0  0  0  0  0
    1.1300   14.4960  -11.9520 C   0  0  0  0  0  0  0  0  0  0  0  0
    0.3140   13.7740  -11.9180 H   0  0  0  0  0  0  0  0  0  0  0  0
    1.6970   14.4460  -11.0220 H   0  0  0  0  0  0  0  0  0  0  0  0
    1.9940   14.1960  -13.0610 O   0  0  0  0  0  0  0  0  0  0  0  0
    2.3660   13.2850  -12.9510 H   0  0  0  0  0  0  0  0  0  0  0  0
   -1.7070   15.5990  -11.3820 N   0  0  0  0  0  0  0  0  0  0  0  0
   -1.8300   15.0390  -12.2500 H   0  0  0  0  0  0  0  0  0  0  0  0
   -2.8500   15.7940  -10.4960 C   0  0  2  0  0  0  0  0  0  0  0  0
   -2.4940   15.6940   -9.4710 H   0  0  0  0  0  0  0  0  0  0  0  0
   -3.9360   14.7420  -10.7100 C   0  0  0  0  0  0  0  0  0  0  0  0
   -4.1170   14.2150  -11.8220 O   0  0  0  0  0  0  0  0  0  0  0  0
   -3.4310   17.1680  -10.7260 C   0  0  0  0  0  0  0  0  0  0  0  0
   -3.6970   17.2780  -11.7770 H   0  0  0  0  0  0  0  0  0  0  0  0
   -2.6920   17.9230  -10.4590 H   0  0  0  0  0  0  0  0  0  0  0  0
   -4.5930   17.3400   -9.9250 O   0  0  0  0  0  0  0  0  0  0  0  0
   -4.9690   18.2430  -10.0800 H   0  0  0  0  0  0  0  0  0  0  0  0
   -4.6520   14.4140   -9.6350 N   0  0  0  0  0  0  0  0  0  0  0  0
   -4.3590   14.7920   -8.7110 H   0  0  0  0  0  0  0  0  0  0  0  0
   -5.8320   13.5460   -9.6910 C   0  0  2  0  0  0  0  0  0  0  0  0
   -5.6450   12.7780  -10.4420 H   0  0  0  0  0  0  0  0  0  0  0  0
   -7.0770   14.3290  -10.1220 C   0  0  0  0  0  3  0  0  0  0  0  0
   -8.0250   13.7390  -10.5890 O   0  0  0  0  0  0  0  0  0  0  0  0
   -6.0610   12.8570   -8.3570 C   0  0  0  0  0  0  0  0  0  0  0  0
   -5.9730   13.6020   -7.5670 H   0  0  0  0  0  0  0  0  0  0  0  0
   -7.0700   12.4440   -8.3540 H   0  0  0  0  0  0  0  0  0  0  0  0
   -5.0730   11.7210   -8.0610 C   0  0  0  0  0  0  0  0  0  0  0  0
   -4.0720   11.8810   -7.1020 C   0  0  0  0  0  0  0  0  0  0  0  0
   -3.9860   12.8270   -6.5670 H   0  0  0  0  0  0  0  0  0  0  0  0
   -5.1740   10.4980   -8.7080 C   0  0  0  0  0  0  0  0  0  0  0  0
   -5.9560   10.3530   -9.4530 H   0  0  0  0  0  0  0  0  0  0  0  0
   -3.1820   10.8480   -6.8190 C   0  0  0  0  0  0  0  0  0  0  0  0
   -2.4060   10.9870   -6.0660 H   0  0  0  0  0  0  0  0  0  0  0  0
   -4.2920    9.4420   -8.4250 C   0  0  0  0  0  0  0  0  0  0  0  0
   -4.4060    8.4830   -8.9310 H   0  0  0  0  0  0  0  0  0  0  0  0
   -3.2860    9.6220   -7.5080 C   0  0  0  0  0  0  0  0  0  0  0  0
   -2.5720    8.8220   -7.3140 H   0  0  0  0  0  0  0  0  0  0  0  0
   -3.3140    5.0230  -13.0570 N   0  0  0  0  0  2  0  0  0  0  0  0
   -4.1400    5.6150  -12.8370 H   0  0  0  0  0  0  0  0  0  0  0  0
   -2.5170    4.4610  -11.9940 C   0  0  2  0  0  0  0  0  0  0  0  0
   -1.7250    3.8470  -12.4230 H   0  0  0  0  0  0  0  0  0  0  0  0
   -3.4380    3.6400  -11.1070 C   0  0  0  0  0  3  0  0  0  0  0  0
   -4.4710    4.1900  -10.6370 O   0  0  0  0  0  0  0  0  0  0  0  0
   -1.8540    5.5840  -11.1350 C   0  0  0  0  0  0  0  0  0  0  0  0
   -2.6490    6.2450  -10.7900 H   0  0  0  0  0  0  0  0  0  0  0  0
   -1.1450    4.9970   -9.9330 C   0  0  0  0  0  0  0  0  0  0  0  0
   -1.8650    4.4610   -9.3150 H   0  0  0  0  0  0  0  0  0  0  0  0
   -0.3700    4.3090  -10.2700 H   0  0  0  0  0  0  0  0  0  0  0  0
   -0.6920    5.8000   -9.3520 H   0  0  0  0  0  0  0  0  0  0  0  0
   -0.8790    6.3820  -11.9530 C   0  0  0  0  0  0  0  0  0  0  0  0
   -0.0980    5.7220  -12.3300 H   0  0  0  0  0  0  0  0  0  0  0  0
   -1.4020    6.8440  -12.7900 H   0  0  0  0  0  0  0  0  0  0  0  0
   -0.4320    7.1570  -11.3300 H   0  0  0  0  0  0  0  0  0  0  0  0
   -4.5210    2.0210   -7.7850 N   0  0  0  0  0  2  0  0  0  0  0  0
   -5.4600    2.1270   -8.2190 H   0  0  0  0  0  0  0  0  0  0  0  0
   -4.3760    2.2860   -6.3400 C   0  0  2  0  0  0  0  0  0  0  0  0
   -3.3700    1.9630   -6.0710 H   0  0  0  0  0  0  0  0  0  0  0  0
   -5.3740    1.4700   -5.5200 C   0  0  0  0  0  3  0  0  0  0  0  0
   -6.6090    1.7400   -5.5300 O   0  0  0  0  0  0  0  0  0  0  0  0
   -4.4620    3.8040   -5.9870 C   0  0  2  0  0  0  0  0  0  0  0  0
   -5.4400    4.1780   -6.2900 H   0  0  0  0  0  0  0  0  0  0  0  0
   -3.3750    4.5860   -6.7450 C   0  0  0  0  0  0  0  0  0  0  0  0
   -2.4260    4.4330   -6.2310 H   0  0  0  0  0  0  0  0  0  0  0  0
   -3.3090    4.1820   -7.7550 H   0  0  0  0  0  0  0  0  0  0  0  0
   -4.3050    4.0130   -4.4580 C   0  0  0  0  0  0  0  0  0  0  0  0
   -5.1000    3.4810   -3.9360 H   0  0  0  0  0  0  0  0  0  0  0  0
   -3.3370    3.6280   -4.1370 H   0  0  0  0  0  0  0  0  0  0  0  0
   -4.3670    5.0770   -4.2300 H   0  0  0  0  0  0  0  0  0  0  0  0
   -3.6210    6.0930   -6.8510 C   0  0  0  0  0  0  0  0  0  0  0  0
   -4.5590    6.2710   -7.3760 H   0  0  0  0  0  0  0  0  0  0  0  0
   -3.6760    6.5220   -5.8510 H   0  0  0  0  0  0  0  0  0  0  0  0
   -2.8020    6.5560   -7.4010 H   0  0  0  0  0  0  0  0  0  0  0  0
   -7.1030    4.9550  -11.2140 N   0  0  0  0  0  2  0  0  0  0  0  0
   -6.1220    4.6450  -11.0650 H   0  0  0  0  0  0  0  0  0  0  0  0
   -7.3690    6.3930  -11.2260 C   0  0  2  0  0  0  0  0  0  0  0  0
   -8.4260    6.5500  -11.4390 H   0  0  0  0  0  0  0  0  0  0  0  0
   -6.5510    7.1110  -12.3230 C   0  0  0  0  0  3  0  0  0  0  0  0
   -5.3670    6.8340  -12.4820 O   0  0  0  0  0  0  0  0  0  0  0  0
   -6.9990    6.9690   -9.8590 C   0  0  0  0  0  0  0  0  0  0  0  0
   -5.9460    6.7590   -9.6690 H   0  0  0  0  0  0  0  0  0  0  0  0
   -7.1550    8.0480   -9.8840 H   0  0  0  0  0  0  0  0  0  0  0  0
   -7.8100    6.3970   -8.7320 C   0  0  0  0  0  0  0  0  0  0  0  0
   -9.1120    6.7880   -8.4820 N   0  0  0  0  0  0  0  0  0  0  0  0
   -7.5200    5.4300   -7.8250 C   0  0  0  0  0  0  0  0  0  0  0  0
   -6.5730    4.9000   -7.7210 H   0  0  0  0  0  0  0  0  0  0  0  0
   -9.5840    6.0790   -7.4730 C   0  0  0  0  0  0  0  0  0  0  0  0
  -10.5840    6.1660   -7.0470 H   0  0  0  0  0  0  0  0  0  0  0  0
   -8.6430    5.2470   -7.0660 N   0  0  0  0  0  0  0  0  0  0  0  0
   -4.3430    9.9870  -13.8600 N   0  0  0  0  0  2  0  0  0  0  0  0
   -3.9430    9.2670  -14.4950 H   0  0  0  0  0  0  0  0  0  0  0  0
   -3.4660   11.0950  -13.4060 C   0  0  2  0  0  0  0  0  0  0  0  0
   -3.9980   11.6020  -12.6010 H   0  0  0  0  0  0  0  0  0  0  0  0
   -3.1980   12.0700  -14.5610 C   0  0  0  0  0  3  0  0  0  0  0  0
   -2.6940   11.6660  -15.6100 O   0  0  0  0  0  0  0  0  0  0  0  0
   -2.1230   10.5980  -12.8370 C   0  0  0  0  0  0  0  0  0  0  0  0
   -1.6160   10.0380  -13.6230 H   0  0  0  0  0  0  0  0  0  0  0  0
   -1.2160   11.7770  -12.4230 C   0  0  0  0  0  0  0  0  0  0  0  0
   -1.0140   12.4010  -13.2930 H   0  0  0  0  0  0  0  0  0  0  0  0
   -1.7190   12.3690  -11.6580 H   0  0  0  0  0  0  0  0  0  0  0  0
   -0.2780   11.3900  -12.0260 H   0  0  0  0  0  0  0  0  0  0  0  0
   -2.3600    9.6900  -11.6480 C   0  0  0  0  0  0  0  0  0  0  0  0
   -2.8940   10.2400  -10.8730 H   0  0  0  0  0  0  0  0  0  0  0  0
   -2.9540    8.8310  -11.9610 H   0  0  0  0  0  0  0  0  0  0  0  0
   -1.4020    9.3470  -11.2570 H   0  0  0  0  0  0  0  0  0  0  0  0
   10.6540   11.3050   -5.5760 N   0  0  0  0  0  2  0  0  0  0  0  0
   10.3920   12.2850   -5.8030 H   0  0  0  0  0  0  0  0  0  0  0  0
   10.0940   10.6720   -4.3490 C   0  0  2  0  0  0  0  0  0  0  0  0
   10.8680    9.9920   -3.9930 H   0  0  0  0  0  0  0  0  0  0  0  0
    8.8430    9.8410   -4.6350 C   0  0  0  0  0  0  0  0  0  0  0  0
    8.3760    9.1070   -3.7350 O   0  0  0  0  0  0  0  0  0  0  0  0
    9.8210   11.6790   -3.2540 C   0  0  0  0  0  0  0  0  0  0  0  0
   10.7510   12.1790   -2.9810 H   0  0  0  0  0  0  0  0  0  0  0  0
    9.1020   12.4160   -3.6110 H   0  0  0  0  0  0  0  0  0  0  0  0
    9.4140   11.1650   -2.3830 H   0  0  0  0  0  0  0  0  0  0  0  0
    8.3280    9.9240   -5.8760 N   0  0  0  0  0  0  0  0  0  0  0  0
    8.8050   10.5390   -6.5650 H   0  0  0  0  0  0  0  0  0  0  0  0
    7.1420    9.2010   -6.3060 C   0  0  2  0  0  0  0  0  0  0  0  0
    6.4000    9.3360   -5.5190 H   0  0  0  0  0  0  0  0  0  0  0  0
    7.4250    7.7530   -6.4980 C   0  0  0  0  0  0  0  0  0  0  0  0
    8.5700    7.2700   -6.4620 O   0  0  0  0  0  0  0  0  0  0  0  0
    6.6180    9.7450   -7.6390 C   0  0  0  0  0  0  0  0  0  0  0  0
    5.6190    9.3460   -7.8150 H   0  0  0  0  0  0  0  0  0  0  0  0
    7.2840    9.4210   -8.4390 H   0  0  0  0  0  0  0  0  0  0  0  0
    6.5530   11.1910   -7.6390 O   0  0  0  0  0  0  0  0  0  0  0  0
    6.2110   11.5050   -8.5140 H   0  0  0  0  0  0  0  0  0  0  0  0
    6.3550    7.0580   -6.8100 N   0  0  0  0  0  0  0  0  0  0  0  0
    5.4610    7.5640   -6.9720 H   0  0  0  0  0  0  0  0  0  0  0  0
    6.3700    5.6400   -6.9350 C   0  0  2  0  0  0  0  0  0  0  0  0
    7.1620    5.1570   -6.3640 H   0  0  0  0  0  0  0  0  0  0  0  0
    6.5790    5.3360   -8.4090 C   0  0  0  0  0  3  0  0  0  0  0  0
    6.0940    6.0730   -9.2600 O   0  0  0  0  0  0  0  0  0  0  0  0
    5.0220    5.1190   -6.4090 C   0  0  0  0  0  0  0  0  0  0  0  0
    4.2350    5.7010   -6.8870 H   0  0  0  0  0  0  0  0  0  0  0  0
    4.9330    4.0750   -6.7090 H   0  0  0  0  0  0  0  0  0  0  0  0
    4.7900    5.1880   -4.8740 C   0  0  0  0  0  0  0  0  0  0  0  0
    5.0100    6.2120   -4.5710 H   0  0  0  0  0  0  0  0  0  0  0  0
    3.3110    4.7880   -4.5700 C   0  0  0  0  0  0  0  0  0  0  0  0
    2.6380    5.4790   -5.0770 H   0  0  0  0  0  0  0  0  0  0  0  0
    3.1300    3.7740   -4.9260 H   0  0  0  0  0  0  0  0  0  0  0  0
    3.1370    4.8330   -3.4950 H   0  0  0  0  0  0  0  0  0  0  0  0
    5.7270    4.2640   -4.0560 C   0  0  0  0  0  0  0  0  0  0  0  0
    5.5710    3.2290   -4.3610 H   0  0  0  0  0  0  0  0  0  0  0  0
    6.7640    4.5460   -4.2400 H   0  0  0  0  0  0  0  0  0  0  0  0
    5.5030    4.3690   -2.9940 H   0  0  0  0  0  0  0  0  0  0  0  0
    5.3050    3.2970  -10.3550 N   0  0  0  0  0  2  0  0  0  0  0  0
    5.3190    3.2100   -9.3190 H   0  0  0  0  0  0  0  0  0  0  0  0
    4.1120    2.9140  -11.0930 C   0  0  2  0  0  0  0  0  0  0  0  0
    4.3770    2.2010  -11.8730 H   0  0  0  0  0  0  0  0  0  0  0  0
    3.5250    4.1710  -11.7290 C   0  0  0  0  0  0  0  0  0  0  0  0
    2.8290    4.0740  -12.7370 O   0  0  0  0  0  0  0  0  0  0  0  0
    3.0890    2.1810  -10.2000 C   0  0  0  0  0  0  0  0  0  0  0  0
    2.2390    1.8870  -10.8160 H   0  0  0  0  0  0  0  0  0  0  0  0
    3.5630    1.2900   -9.7890 H   0  0  0  0  0  0  0  0  0  0  0  0
    2.5850    3.0260   -9.0590 C   0  0  0  0  0  0  0  0  0  0  0  0
    3.2850    2.9380   -8.2280 H   0  0  0  0  0  0  0  0  0  0  0  0
    2.5440    4.0640   -9.3890 H   0  0  0  0  0  0  0  0  0  0  0  0
    1.2080    2.6210   -8.5730 C   0  0  0  0  0  0  0  0  0  0  0  0
    0.7530    3.4710   -8.0650 H   0  0  0  0  0  0  0  0  0  0  0  0
    0.6000    2.3470   -9.4350 H   0  0  0  0  0  0  0  0  0  0  0  0
    1.2480    1.4500   -7.6160 C   0  0  0  0  0  0  0  0  0  0  0  0
    2.1300    1.5540   -6.9850 H   0  0  0  0  0  0  0  0  0  0  0  0
    1.3270    0.5330   -8.2000 H   0  0  0  0  0  0  0  0  0  0  0  0
    0.0220    1.3380   -6.7120 N   0  0  0  0  0  4  0  0  0  0  0  0
   -0.0630    2.2000   -6.1370 H   0  0  0  0  0  0  0  0  0  0  0  0
   -0.8300    1.2250   -7.2980 H   0  0  0  0  0  0  0  0  0  0  0  0
    0.1270    0.5130   -6.0880 H   0  0  0  0  0  0  0  0  0  0  0  0
    3.8150    5.3320  -11.1570 N   0  0  0  0  0  0  0  0  0  0  0  0
    4.3440    5.3460  -10.2620 H   0  0  0  0  0  0  0  0  0  0  0  0
    3.4060    6.5700  -11.7600 C   0  0  2  0  0  0  0  0  0  0  0  0
    2.6010    6.3500  -12.4610 H   0  0  0  0  0  0  0  0  0  0  0  0
    4.5830    7.2000  -12.5340 C   0  0  0  0  0  3  0  0  0  0  0  0
    4.3900    7.6850  -13.6440 O   0  0  0  0  0  0  0  0  0  0  0  0
    2.8330    7.5740  -10.6990 C   0  0  0  0  0  0  0  0  0  0  0  0
    1.7520    7.4410  -10.6510 H   0  0  0  0  0  0  0  0  0  0  0  0
    3.2710    7.3350   -9.7300 H   0  0  0  0  0  0  0  0  0  0  0  0
    3.1220    9.0400  -11.0060 C   0  0  0  0  0  0  0  0  0  0  0  0
    2.4190    9.6990  -11.9770 C   0  0  0  0  0  0  0  0  0  0  0  0
    1.6340    9.1740  -12.5200 H   0  0  0  0  0  0  0  0  0  0  0  0
    4.1580    9.7400  -10.3510 C   0  0  0  0  0  0  0  0  0  0  0  0
    4.7460    9.2230   -9.5930 H   0  0  0  0  0  0  0  0  0  0  0  0
    2.7000   11.0760  -12.2930 C   0  0  0  0  0  0  0  0  0  0  0  0
    2.1060   11.5870  -13.0510 H   0  0  0  0  0  0  0  0  0  0  0  0
    4.4620   11.1120  -10.6520 C   0  0  0  0  0  0  0  0  0  0  0  0
    5.2550   11.6380  -10.1200 H   0  0  0  0  0  0  0  0  0  0  0  0
    3.7150   11.7570  -11.6450 C   0  0  0  0  0  0  0  0  0  0  0  0
    3.9630   13.0750  -12.0290 O   0  0  0  0  0  0  0  0  0  0  0  0
    3.3260   13.3360  -12.7410 H   0  0  0  0  0  0  0  0  0  0  0  0
   10.9780    6.3050   -4.9480 N   0  0  0  0  0  2  0  0  0  0  0  0
   10.1880    5.9880   -5.5450 H   0  0  0  0  0  0  0  0  0  0  0  0
   10.7200    6.5580   -3.5270 C   0  0  2  0  0  0  0  0  0  0  0  0
   10.9690    7.6020   -3.3390 H   0  0  0  0  0  0  0  0  0  0  0  0
   11.6250    5.7190   -2.6400 C   0  0  0  0  0  3  0  0  0  0  0  0
   12.2670    6.2920   -1.7970 O   0  0  0  0  0  0  0  0  0  0  0  0
    9.2040    6.4100   -3.1540 C   0  0  0  0  0  0  0  0  0  0  0  0
    8.6640    7.2090   -3.6620 H   0  0  0  0  0  0  0  0  0  0  0  0
    8.8680    5.4460   -3.5360 H   0  0  0  0  0  0  0  0  0  0  0  0
    8.8060    6.4750   -1.6050 C   0  0  0  0  0  0  0  0  0  0  0  0
    9.0730    5.5270   -1.1380 H   0  0  0  0  0  0  0  0  0  0  0  0
    9.3690    7.2810   -1.1350 H   0  0  0  0  0  0  0  0  0  0  0  0
    7.2710    6.7340   -1.3710 C   0  0  0  0  0  0  0  0  0  0  0  0
    6.9860    6.4380   -0.3620 H   0  0  0  0  0  0  0  0  0  0  0  0
    6.6770    6.1740   -2.0940 H   0  0  0  0  0  0  0  0  0  0  0  0
    7.0740    8.1750   -1.5550 N   0  0  0  0  0  0  0  0  0  0  0  0
    7.9010    8.7810   -1.3810 H   0  0  0  0  0  0  0  0  0  0  0  0
    5.9530    8.7950   -1.9200 C   0  0  0  0  0  0  0  0  0  0  0  0
    4.8300    8.1290   -2.1550 N   0  0  0  0  0  4  0  0  0  0  0  0
    4.8090    7.0940   -2.0560 H   0  0  0  0  0  0  0  0  0  0  0  0
    3.9710    8.6420   -2.4390 H   0  0  0  0  0  0  0  0  0  0  0  0
    5.9750   10.1110   -2.0680 N   0  0  0  0  0  0  0  0  0  0  0  0
    6.8550   10.6390   -1.9000 H   0  0  0  0  0  0  0  0  0  0  0  0
    5.1120   10.6170   -2.3520 H   0  0  0  0  0  0  0  0  0  0  0  0
   11.6800   13.6970    2.1500 N   0  0  0  0  0  2  0  0  0  0  0  0
   11.0060   14.3750    1.7400 H   0  0  0  0  0  0  0  0  0  0  0  0
   12.3750   12.7460    1.2760 C   0  0  2  0  0  0  0  0  0  0  0  0
   12.5890   11.8420    1.8460 H   0  0  0  0  0  0  0  0  0  0  0  0
   13.6730   13.4000    0.7880 C   0  0  0  0  0  3  0  0  0  0  0  0
   13.6690   14.3550    0.0170 O   0  0  0  0  0  0  0  0  0  0  0  0
   11.5200   12.3200    0.0890 C   0  0  0  0  0  0  0  0  0  0  0  0
   11.3570   13.1990   -0.5350 H   0  0  0  0  0  0  0  0  0  0  0  0
   12.0810   11.5750   -0.4740 H   0  0  0  0  0  0  0  0  0  0  0  0
   10.1640   11.7270    0.4160 C   0  0  0  0  0  0  0  0  0  0  0  0
   10.0310   10.3500    0.7370 C   0  0  0  0  0  0  0  0  0  0  0  0
   10.9170    9.7150    0.7680 H   0  0  0  0  0  0  0  0  0  0  0  0
    9.0060   12.5450    0.3790 C   0  0  0  0  0  0  0  0  0  0  0  0
    9.1020   13.6000    0.1210 H   0  0  0  0  0  0  0  0  0  0  0  0
    8.7740    9.8000    1.0140 C   0  0  0  0  0  0  0  0  0  0  0  0
    8.6750    8.7420    1.2580 H   0  0  0  0  0  0  0  0  0  0  0  0
    7.7410   12.0170    0.6690 C   0  0  0  0  0  0  0  0  0  0  0  0
    6.8570   12.6550    0.6610 H   0  0  0  0  0  0  0  0  0  0  0  0
    7.6340   10.6360    0.9730 C   0  0  0  0  0  0  0  0  0  0  0  0
    6.3730   10.1120    1.2340 O   0  0  0  0  0  0  0  0  0  0  0  0
    6.4530    9.1450    1.4290 H   0  0  0  0  0  0  0  0  0  0  0  0
    6.8140   13.4770   -8.2220 H   0  0  0  0  0  0  0  0  0  0  0  0
   -8.7350    4.5970   -6.3320 H   0  0  0  0  0  0  0  0  0  0  0  0
  1  2  1  0
  1  3  1  0
  3  4  1  6
  3  5  1  0
  3  7  1  0
  5  6  2  0
  7  8  1  0
  7  9  1  0
  7 10  1  0
 10 11  2  0
 10 12  1  0
 12250  1  0
 13 14  1  0
 13 15  1  0
 15 16  1  6
 15 17  1  0
 15 19  1  0
 17 18  2  0
 17 24  1  0
 19 20  1  0
 19 21  1  0
 19 22  1  0
 22 23  1  0
 24 25  1  0
 24 26  1  0
 26 27  1  1
 26 28  1  0
 26 30  1  0
 28 29  2  0
 28 35  1  0
 30 31  1  0
 30 32  1  0
 30 33  1  0
 33 34  1  0
 35 36  1  0
 35 37  1  0
 37 38  1  6
 37 39  1  0
 37 41  1  0
 39 40  2  0
 41 42  1  0
 41 43  1  0
 41 44  1  0
 44 45  2  0
 44 47  1  0
 45 46  1  0
 45 49  1  0
 47 48  1  0
 47 51  2  0
 49 50  1  0
 49 53  2  0
 51 52  1  0
 51 53  1  0
 53 54  1  0
 55 56  1  0
 55 57  1  0
 57 58  1  6
 57 59  1  0
 57 61  1  0
 59 60  2  0
 61 62  1  0
 61 63  1  0
 61 67  1  0
 63 64  1  0
 63 65  1  0
 63 66  1  0
 67 68  1  0
 67 69  1  0
 67 70  1  0
 71 72  1  0
 71 73  1  0
 73 74  1  1
 73 75  1  0
 73 77  1  0
 75 76  2  0
 77 78  1  6
 77 79  1  0
 77 82  1  0
 79 80  1  0
 79 81  1  0
 79 86  1  0
 82 83  1  0
 82 84  1  0
 82 85  1  0
 86 87  1  0
 86 88  1  0
 86 89  1  0
 90 91  1  0
 90 92  1  0
 92 93  1  6
 92 94  1  0
 92 96  1  0
 94 95  2  0
 96 97  1  0
 96 98  1  0
 96 99  1  0
 99100  1  0
 99101  2  0
100103  2  0
101102  1  0
101105  1  0
103104  1  0
103105  1  0
105251  1  0
106107  1  0
106108  1  0
108109  1  1
108110  1  0
108112  1  0
110111  2  0
112113  1  0
112114  1  0
112118  1  0
114115  1  0
114116  1  0
114117  1  0
118119  1  0
118120  1  0
118121  1  0
122123  1  0
122124  1  0
124125  1  1
124126  1  0
124128  1  0
126127  2  0
126132  1  0
128129  1  0
128130  1  0
128131  1  0
132133  1  0
132134  1  0
134135  1  1
134136  1  0
134138  1  0
136137  2  0
136143  1  0
138139  1  0
138140  1  0
138141  1  0
141142  1  0
143144  1  0
143145  1  0
145146  1  1
145147  1  0
145149  1  0
147148  2  0
149150  1  0
149151  1  0
149152  1  0
152153  1  0
152154  1  0
152158  1  0
154155  1  0
154156  1  0
154157  1  0
158159  1  0
158160  1  0
158161  1  0
162163  1  0
162164  1  0
164165  1  6
164166  1  0
164168  1  0
166167  2  0
166184  1  0
168169  1  0
168170  1  0
168171  1  0
171172  1  0
171173  1  0
171174  1  0
174175  1  0
174176  1  0
174177  1  0
177178  1  0
177179  1  0
177180  1  0
180181  1  0
180182  1  0
180183  1  0
184185  1  0
184186  1  0
186187  1  6
186188  1  0
186190  1  0
188189  2  0
190191  1  0
190192  1  0
190193  1  0
193194  2  0
193196  1  0
194195  1  0
194198  1  0
196197  1  0
196200  2  0
198199  1  0
198202  2  0
200201  1  0
200202  1  0
202203  1  0
203204  1  0
205206  1  0
205207  1  0
207208  1  6
207209  1  0
207211  1  0
209210  2  0
211212  1  0
211213  1  0
211214  1  0
214215  1  0
214216  1  0
214217  1  0
217218  1  0
217219  1  0
217220  1  0
220221  1  0
220222  1  0
222223  2  0
222226  1  0
223224  1  0
223225  1  0
226227  1  0
226228  1  0
229230  1  0
229231  1  0
231232  1  1
231233  1  0
231235  1  0
233234  2  0
235236  1  0
235237  1  0
235238  1  0
238239  2  0
238241  1  0
239240  1  0
239243  1  0
241242  1  0
241245  2  0
243244  1  0
243247  2  0
245246  1  0
245247  1  0
247248  1  0
248249  1  0
M  RAD  8   1   2   5   2  13   2  39   2  55   2  59   2  71   2  75   2
M  RAD  8  90   2  94   2 106   2 110   2 122   2 147   2 162   2 188   2
M  CHG  2 180   1 223   1
M  RAD  4 205   2 209   2 229   2 233   2
M  END
$$$$

     RDKit          3D

251245  0  0  0  0  0  0  0  0999 V2000
    8.2390   15.7430  -10.2460 N   0  0  0  0  0  2  0  0  0  0  0  0
    8.4060   14.8450   -9.7480 H   0  0  0  0  0  0  0  0  0  0  0  0
    7.1270   16.5820   -9.8330 C   0  0  2  0  0  0  0  0  0  0  0  0
    6.5240   16.7530  -10.7240 H   0  0  0  0  0  0  0  0  0  0  0  0
    7.5010   17.9630   -9.3590 C   0  0  0  0  0  3  0  0  0  0  0  0
    8.3130   18.1090   -8.4540 O   0  0  0  0  0  0  0  0  0  0  0  0
    6.3630   15.8620   -8.7680 C   0  0  0  0  0  0  0  0  0  0  0  0
    7.0440   15.5910   -7.9610 H   0  0  0  0  0  0  0  0  0  0  0  0
    5.5850   16.5200   -8.3800 H   0  0  0  0  0  0  0  0  0  0  0  0
    5.7360   14.6350   -9.3040 C   0  0  0  0  0  0  0  0  0  0  0  0
    4.8520   14.7920  -10.1880 O   0  0  0  0  0  0  0  0  0  0  0  0
    6.1520   13.5130   -8.8840 O   0  0  0  0  0  0  0  0  0  0  0  0
    1.6580   16.8130  -11.9920 N   0  0  0  0  0  2  0  0  0  0  0  0
    2.3630   16.6600  -11.2430 H   0  0  0  0  0  0  0  0  0  0  0  0
    0.5750   15.8710  -12.1280 C   0  0  2  0  0  0  0  0  0  0  0  0
    0.1290   15.9910  -13.1150 H   0  0  0  0  0  0  0  0  0  0  0  0
   -0.5220   16.1130  -11.1130 C   0  0  0  0  0  0  0  0  0  0  0  0
   -0.2990   16.7340  -10.0760 O   0  0  0  0  0  0  0  0  0  0  0  0
    1.1300   14.4960  -11.9520 C   0  0  0  0  0  0  0  0  0  0  0  0
    0.3140   13.7740  -11.9180 H   0  0  0  0  0  0  0  0  0  0  0  0
    1.6970   14.4460  -11.0220 H   0  0  0  0  0  0  0  0  0  0  0  0
    1.9940   14.1960  -13.0610 O   0  0  0  0  0  0  0  0  0  0  0  0
    2.3660   13.2850  -12.9510 H   0  0  0  0  0  0  0  0  0  0  0  0
   -1.7070   15.5990  -11.3820 N   0  0  0  0  0  0  0  0  0  0  0  0
   -1.8300   15.0390  -12.2500 H   0  0  0  0  0  0  0  0  0  0  0  0
   -2.8500   15.7940  -10.4960 C   0  0  2  0  0  0  0  0  0  0  0  0
   -2.4940   15.6940   -9.4710 H   0  0  0  0  0  0  0  0  0  0  0  0
   -3.9360   14.7420  -10.7100 C   0  0  0  0  0  0  0  0  0  0  0  0
   -4.1170   14.2150  -11.8220 O   0  0  0  0  0  0  0  0  0  0  0  0
   -3.4310   17.1680  -10.7260 C   0  0  0  0  0  0  0  0  0  0  0  0
   -3.6970   17.2780  -11.7770 H   0  0  0  0  0  0  0  0  0  0  0  0
   -2.6920   17.9230  -10.4590 H   0  0  0  0  0  0  0  0  0  0  0  0
   -4.5930   17.3400   -9.9250 O   0  0  0  0  0  0  0  0  0  0  0  0
   -4.9690   18.2430  -10.0800 H   0  0  0  0  0  0  0  0  0  0  0  0
   -4.6520   14.4140   -9.6350 N   0  0  0  0  0  0  0  0  0  0  0  0
   -4.3590   14.7920   -8.7110 H   0  0  0  0  0  0  0  0  0  0  0  0
   -5.8320   13.5460   -9.6910 C   0  0  2  0  0  0  0  0  0  0  0  0
   -5.6450   12.7780  -10.4420 H   0  0  0  0  0  0  0  0  0  0  0  0
   -7.0770   14.3290  -10.1220 C   0  0  0  0  0  3  0  0  0  0  0  0
   -8.0250   13.7390  -10.5890 O   0  0  0  0  0  0  0  0  0  0  0  0
   -6.0610   12.8570   -8.3570 C   0  0  0  0  0  0  0  0  0  0  0  0
   -5.9730   13.6020   -7.5670 H   0  0  0  0  0  0  0  0  0  0  0  0
   -7.0700   12.4440   -8.3540 H   0  0  0  0  0  0  0  0  0  0  0  0
   -5.0730   11.7210   -8.0610 C   0  0  0  0  0  0  0  0  0  0  0  0
   -4.0720   11.8810   -7.1020 C   0  0  0  0  0  0  0  0  0  0  0  0
   -3.9860   12.8270   -6.5670 H   0  0  0  0  0  0  0  0  0  0  0  0
   -5.1740   10.4980   -8.7080 C   0  0  0  0  0  0  0  0  0  0  0  0
   -5.9560   10.3530   -9.4530 H   0  0  0  0  0  0  0  0  0  0  0  0
   -3.1820   10.8480   -6.8190 C   0  0  0  0  0  0  0  0  0  0  0  0
   -2.4060   10.9870   -6.0660 H   0  0  0  0  0  0  0  0  0  0  0  0
   -4.2920    9.4420   -8.4250 C   0  0  0  0  0  0  0  0  0  0  0  0
   -4.4060    8.4830   -8.9310 H   0  0  0  0  0  0  0  0  0  0  0  0
   -3.2860    9.6220   -7.5080 C   0  0  0  0  0  0  0  0  0  0  0  0
   -2.5720    8.8220   -7.3140 H   0  0  0  0  0  0  0  0  0  0  0  0
   -3.3140    5.0230  -13.0570 N   0  0  0  0  0  2  0  0  0  0  0  0
   -4.1400    5.6150  -12.8370 H   0  0  0  0  0  0  0  0  0  0  0  0
   -2.5170    4.4610  -11.9940 C   0  0  2  0  0  0  0  0  0  0  0  0
   -1.7250    3.8470  -12.4230 H   0  0  0  0  0  0  0  0  0  0  0  0
   -3.4380    3.6400  -11.1070 C   0  0  0  0  0  3  0  0  0  0  0  0
   -4.4710    4.1900  -10.6370 O   0  0  0  0  0  0  0  0  0  0  0  0
   -1.8540    5.5840  -11.1350 C   0  0  0  0  0  0  0  0  0  0  0  0
   -2.6490    6.2450  -10.7900 H   0  0  0  0  0  0  0  0  0  0  0  0
   -1.1450    4.9970   -9.9330 C   0  0  0  0  0  0  0  0  0  0  0  0
   -1.8650    4.4610   -9.3150 H   0  0  0  0  0  0  0  0  0  0  0  0
   -0.3700    4.3090  -10.2700 H   0  0  0  0  0  0  0  0  0  0  0  0
   -0.6920    5.8000   -9.3520 H   0  0  0  0  0  0  0  0  0  0  0  0
   -0.8790    6.3820  -11.9530 C   0  0  0  0  0  0  0  0  0  0  0  0
   -0.0980    5.7220  -12.3300 H   0  0  0  0  0  0  0  0  0  0  0  0
   -1.4020    6.8440  -12.7900 H   0  0  0  0  0  0  0  0  0  0  0  0
   -0.4320    7.1570  -11.3300 H   0  0  0  0  0  0  0  0  0  0  0  0
   -4.5210    2.0210   -7.7850 N   0  0  0  0  0  2  0  0  0  0  0  0
   -5.4600    2.1270   -8.2190 H   0  0  0  0  0  0  0  0  0  0  0  0
   -4.3760    2.2860   -6.3400 C   0  0  2  0  0  0  0  0  0  0  0  0
   -3.3700    1.9630   -6.0710 H   0  0  0  0  0  0  0  0  0  0  0  0
   -5.3740    1.4700   -5.5200 C   0  0  0  0  0  3  0  0  0  0  0  0
   -6.6090    1.7400   -5.5300 O   0  0  0  0  0  0  0  0  0  0  0  0
   -4.4620    3.8040   -5.9870 C   0  0  2  0  0  0  0  0  0  0  0  0
   -5.4400    4.1780   -6.2900 H   0  0  0  0  0  0  0  0  0  0  0  0
   -3.3750    4.5860   -6.7450 C   0  0  0  0  0  0  0  0  0  0  0  0
   -2.4260    4.4330   -6.2310 H   0  0  0  0  0  0  0  0  0  0  0  0
   -3.3090    4.1820   -7.7550 H   0  0  0  0  0  0  0  0  0  0  0  0
   -4.3050    4.0130   -4.4580 C   0  0  0  0  0  0  0  0  0  0  0  0
   -5.1000    3.4810   -3.9360 H   0  0  0  0  0  0  0  0  0  0  0  0
   -3.3370    3.6280   -4.1370 H   0  0  0  0  0  0  0  0  0  0  0  0
   -4.3670    5.0770   -4.2300 H   0  0  0  0  0  0  0  0  0  0  0  0
   -3.6210    6.0930   -6.8510 C   0  0  0  0  0  0  0  0  0  0  0  0
   -4.5590    6.2710   -7.3760 H   0  0  0  0  0  0  0  0  0  0  0  0
   -3.6760    6.5220   -5.8510 H   0  0  0  0  0  0  0  0  0  0  0  0
   -2.8020    6.5560   -7.4010 H   0  0  0  0  0  0  0  0  0  0  0  0
   -7.1030    4.9550  -11.2140 N   0  0  0  0  0  2  0  0  0  0  0  0
   -6.1220    4.6450  -11.0650 H   0  0  0  0  0  0  0  0  0  0  0  0
   -7.3690    6.3930  -11.2260 C   0  0  2  0  0  0  0  0  0  0  0  0
   -8.4260    6.5500  -11.4390 H   0  0  0  0  0  0  0  0  0  0  0  0
   -6.5510    7.1110  -12.3230 C   0  0  0  0  0  3  0  0  0  0  0  0
   -5.3670    6.8340  -12.4820 O   0  0  0  0  0  0  0  0  0  0  0  0
   -6.9990    6.9690   -9.8590 C   0  0  0  0  0  0  0  0  0  0  0  0
   -5.9460    6.7590   -9.6690 H   0  0  0  0  0  0  0  0  0  0  0  0
   -7.1550    8.0480   -9.8840 H   0  0  0  0  0  0  0  0  0  0  0  0
   -7.8100    6.3970   -8.7320 C   0  0  0  0  0  0  0  0  0  0  0  0
   -9.1120    6.7880   -8.4820 N   0  0  0  0  0  0  0  0  0  0  0  0
   -7.5200    5.4300   -7.8250 C   0  0  0  0  0  0  0  0  0  0  0  0
   -6.5730    4.9000   -7.7210 H   0  0  0  0  0  0  0  0  0  0  0  0
   -9.5840    6.0790   -7.4730 C   0  0  0  0  0  0  0  0  0  0  0  0
  -10.5840    6.1660   -7.0470 H   0  0  0  0  0  0  0  0  0  0  0  0
   -8.6430    5.2470   -7.0660 N   0  0  0  0  0  0  0  0  0  0  0  0
   -4.3430    9.9870  -13.8600 N   0  0  0  0  0  2  0  0  0  0  0  0
   -3.9430    9.2670  -14.4950 H   0  0  0  0  0  0  0  0  0  0  0  0
   -3.4660   11.0950  -13.4060 C   0  0  2  0  0  0  0  0  0  0  0  0
   -3.9980   11.6020  -12.6010 H   0  0  0  0  0  0  0  0  0  0  0  0
   -3.1980   12.0700  -14.5610 C   0  0  0  0  0  3  0  0  0  0  0  0
   -2.6940   11.6660  -15.6100 O   0  0  0  0  0  0  0  0  0  0  0  0
   -2.1230   10.5980  -12.8370 C   0  0  0  0  0  0  0  0  0  0  0  0
   -1.6160   10.0380  -13.6230 H   0  0  0  0  0  0  0  0  0  0  0  0
   -1.2160   11.7770  -12.4230 C   0  0  0  0  0  0  0  0  0  0  0  0
   -1.0140   12.4010  -13.2930 H   0  0  0  0  0  0  0  0  0  0  0  0
   -1.7190   12.3690  -11.6580 H   0  0  0  0  0  0  0  0  0  0  0  0
   -0.2780   11.3900  -12.0260 H   0  0  0  0  0  0  0  0  0  0  0  0
   -2.3600    9.6900  -11.6480 C   0  0  0  0  0  0  0  0  0  0  0  0
   -2.8940   10.2400  -10.8730 H   0  0  0  0  0  0  0  0  0  0  0  0
   -2.9540    8.8310  -11.9610 H   0  0  0  0  0  0  0  0  0  0  0  0
   -1.4020    9.3470  -11.2570 H   0  0  0  0  0  0  0  0  0  0  0  0
   10.6540   11.3050   -5.5760 N   0  0  0  0  0  2  0  0  0  0  0  0
   10.3920   12.2850   -5.8030 H   0  0  0  0  0  0  0  0  0  0  0  0
   10.0940   10.6720   -4.3490 C   0  0  2  0  0  0  0  0  0  0  0  0
   10.8680    9.9920   -3.9930 H   0  0  0  0  0  0  0  0  0  0  0  0
    8.8430    9.8410   -4.6350 C   0  0  0  0  0  0  0  0  0  0  0  0
    8.3760    9.1070   -3.7350 O   0  0  0  0  0  0  0  0  0  0  0  0
    9.8210   11.6790   -3.2540 C   0  0  0  0  0  0  0  0  0  0  0  0
   10.7510   12.1790   -2.9810 H   0  0  0  0  0  0  0  0  0  0  0  0
    9.1020   12.4160   -3.6110 H   0  0  0  0  0  0  0  0  0  0  0  0
    9.4140   11.1650   -2.3830 H   0  0  0  0  0  0  0  0  0  0  0  0
    8.3280    9.9240   -5.8760 N   0  0  0  0  0  0  0  0  0  0  0  0
    8.8050   10.5390   -6.5650 H   0  0  0  0  0  0  0  0  0  0  0  0
    7.1420    9.2010   -6.3060 C   0  0  2  0  0  0  0  0  0  0  0  0
    6.4000    9.3360   -5.5190 H   0  0  0  0  0  0  0  0  0  0  0  0
    7.4250    7.7530   -6.4980 C   0  0  0  0  0  0  0  0  0  0  0  0
    8.5700    7.2700   -6.4620 O   0  0  0  0  0  0  0  0  0  0  0  0
    6.6180    9.7450   -7.6390 C   0  0  0  0  0  0  0  0  0  0  0  0
    5.6190    9.3460   -7.8150 H   0  0  0  0  0  0  0  0  0  0  0  0
    7.2840    9.4210   -8.4390 H   0  0  0  0  0  0  0  0  0  0  0  0
    6.5530   11.1910   -7.6390 O   0  0  0  0  0  0  0  0  0  0  0  0
    6.2110   11.5050   -8.5140 H   0  0  0  0  0  0  0  0  0  0  0  0
    6.3550    7.0580   -6.8100 N   0  0  0  0  0  0  0  0  0  0  0  0
    5.4610    7.5640   -6.9720 H   0  0  0  0  0  0  0  0  0  0  0  0
    6.3700    5.6400   -6.9350 C   0  0  2  0  0  0  0  0  0  0  0  0
    7.1620    5.1570   -6.3640 H   0  0  0  0  0  0  0  0  0  0  0  0
    6.5790    5.3360   -8.4090 C   0  0  0  0  0  3  0  0  0  0  0  0
    6.0940    6.0730   -9.2600 O   0  0  0  0  0  0  0  0  0  0  0  0
    5.0220    5.1190   -6.4090 C   0  0  0  0  0  0  0  0  0  0  0  0
    4.2350    5.7010   -6.8870 H   0  0  0  0  0  0  0  0  0  0  0  0
    4.9330    4.0750   -6.7090 H   0  0  0  0  0  0  0  0  0  0  0  0
    4.7900    5.1880   -4.8740 C   0  0  0  0  0  0  0  0  0  0  0  0
    5.0100    6.2120   -4.5710 H   0  0  0  0  0  0  0  0  0  0  0  0
    3.3110    4.7880   -4.5700 C   0  0  0  0  0  0  0  0  0  0  0  0
    2.6380    5.4790   -5.0770 H   0  0  0  0  0  0  0  0  0  0  0  0
    3.1300    3.7740   -4.9260 H   0  0  0  0  0  0  0  0  0  0  0  0
    3.1370    4.8330   -3.4950 H   0  0  0  0  0  0  0  0  0  0  0  0
    5.7270    4.2640   -4.0560 C   0  0  0  0  0  0  0  0  0  0  0  0
    5.5710    3.2290   -4.3610 H   0  0  0  0  0  0  0  0  0  0  0  0
    6.7640    4.5460   -4.2400 H   0  0  0  0  0  0  0  0  0  0  0  0
    5.5030    4.3690   -2.9940 H   0  0  0  0  0  0  0  0  0  0  0  0
    5.3050    3.2970  -10.3550 N   0  0  0  0  0  2  0  0  0  0  0  0
    5.3190    3.2100   -9.3190 H   0  0  0  0  0  0  0  0  0  0  0  0
    4.1120    2.9140  -11.0930 C   0  0  2  0  0  0  0  0  0  0  0  0
    4.3770    2.2010  -11.8730 H   0  0  0  0  0  0  0  0  0  0  0  0
    3.5250    4.1710  -11.7290 C   0  0  0  0  0  0  0  0  0  0  0  0
    2.8290    4.0740  -12.7370 O   0  0  0  0  0  0  0  0  0  0  0  0
    3.0890    2.1810  -10.2000 C   0  0  0  0  0  0  0  0  0  0  0  0
    2.2390    1.8870  -10.8160 H   0  0  0  0  0  0  0  0  0  0  0  0
    3.5630    1.2900   -9.7890 H   0  0  0  0  0  0  0  0  0  0  0  0
    2.5850    3.0260   -9.0590 C   0  0  0  0  0  0  0  0  0  0  0  0
    3.2850    2.9380   -8.2280 H   0  0  0  0  0  0  0  0  0  0  0  0
    2.5440    4.0640   -9.3890 H   0  0  0  0  0  0  0  0  0  0  0  0
    1.2080    2.6210   -8.5730 C   0  0  0  0  0  0  0  0  0  0  0  0
    0.7530    3.4710   -8.0650 H   0  0  0  0  0  0  0  0  0  0  0  0
    0.6000    2.3470   -9.4350 H   0  0  0  0  0  0  0  0  0  0  0  0
    1.2480    1.4500   -7.6160 C   0  0  0  0  0  0  0  0  0  0  0  0
    2.1300    1.5540   -6.9850 H   0  0  0  0  0  0  0  0  0  0  0  0
    1.3270    0.5330   -8.2000 H   0  0  0  0  0  0  0  0  0  0  0  0
    0.0220    1.3380   -6.7120 N   0  0  0  0  0  4  0  0  0  0  0  0
   -0.0630    2.2000   -6.1370 H   0  0  0  0  0  0  0  0  0  0  0  0
   -0.8300    1.2250   -7.2980 H   0  0  0  0  0  0  0  0  0  0  0  0
    0.1270    0.5130   -6.0880 H   0  0  0  0  0  0  0  0  0  0  0  0
    3.8150    5.3320  -11.1570 N   0  0  0  0  0  0  0  0  0  0  0  0
    4.3440    5.3460  -10.2620 H   0  0  0  0  0  0  0  0  0  0  0  0
    3.4060    6.5700  -11.7600 C   0  0  2  0  0  0  0  0  0  0  0  0
    2.6010    6.3500  -12.4610 H   0  0  0  0  0  0  0  0  0  0  0  0
    4.5830    7.2000  -12.5340 C   0  0  0  0  0  3  0  0  0  0  0  0
    4.3900    7.6850  -13.6440 O   0  0  0  0  0  0  0  0  0  0  0  0
    2.8330    7.5740  -10.6990 C   0  0  0  0  0  0  0  0  0  0  0  0
    1.7520    7.4410  -10.6510 H   0  0  0  0  0  0  0  0  0  0  0  0
    3.2710    7.3350   -9.7300 H   0  0  0  0  0  0  0  0  0  0  0  0
    3.1220    9.0400  -11.0060 C   0  0  0  0  0  0  0  0  0  0  0  0
    2.4190    9.6990  -11.9770 C   0  0  0  0  0  0  0  0  0  0  0  0
    1.6340    9.1740  -12.5200 H   0  0  0  0  0  0  0  0  0  0  0  0
    4.1580    9.7400  -10.3510 C   0  0  0  0  0  0  0  0  0  0  0  0
    4.7460    9.2230   -9.5930 H   0  0  0  0  0  0  0  0  0  0  0  0
    2.7000   11.0760  -12.2930 C   0  0  0  0  0  0  0  0  0  0  0  0
    2.1060   11.5870  -13.0510 H   0  0  0  0  0  0  0  0  0  0  0  0
    4.4620   11.1120  -10.6520 C   0  0  0  0  0  0  0  0  0  0  0  0
    5.2550   11.6380  -10.1200 H   0  0  0  0  0  0  0  0  0  0  0  0
    3.7150   11.7570  -11.6450 C   0  0  0  0  0  0  0  0  0  0  0  0
    3.9630   13.0750  -12.0290 O   0  0  0  0  0  0  0  0  0  0  0  0
    3.3260   13.3360  -12.7410 H   0  0  0  0  0  0  0  0  0  0  0  0
   10.9780    6.3050   -4.9480 N   0  0  0  0  0  2  0  0  0  0  0  0
   10.1880    5.9880   -5.5450 H   0  0  0  0  0  0  0  0  0  0  0  0
   10.7200    6.5580   -3.5270 C   0  0  2  0  0  0  0  0  0  0  0  0
   10.9690    7.6020   -3.3390 H   0  0  0  0  0  0  0  0  0  0  0  0
   11.6250    5.7190   -2.6400 C   0  0  0  0  0  3  0  0  0  0  0  0
   12.2670    6.2920   -1.7970 O   0  0  0  0  0  0  0  0  0  0  0  0
    9.2040    6.4100   -3.1540 C   0  0  0  0  0  0  0  0  0  0  0  0
    8.6640    7.2090   -3.6620 H   0  0  0  0  0  0  0  0  0  0  0  0
    8.8680    5.4460   -3.5360 H   0  0  0  0  0  0  0  0  0  0  0  0
    8.8060    6.4750   -1.6050 C   0  0  0  0  0  0  0  0  0  0  0  0
    9.0730    5.5270   -1.1380 H   0  0  0  0  0  0  0  0  0  0  0  0
    9.3690    7.2810   -1.1350 H   0  0  0  0  0  0  0  0  0  0  0  0
    7.2710    6.7340   -1.3710 C   0  0  0  0  0  0  0  0  0  0  0  0
    6.9860    6.4380   -0.3620 H   0  0  0  0  0  0  0  0  0  0  0  0
    6.6770    6.1740   -2.0940 H   0  0  0  0  0  0  0  0  0  0  0  0
    7.0740    8.1750   -1.5550 N   0  0  0  0  0  0  0  0  0  0  0  0
    7.9010    8.7810   -1.3810 H   0  0  0  0  0  0  0  0  0  0  0  0
    5.9530    8.7950   -1.9200 C   0  0  0  0  0  0  0  0  0  0  0  0
    4.8300    8.1290   -2.1550 N   0  0  0  0  0  4  0  0  0  0  0  0
    4.8090    7.0940   -2.0560 H   0  0  0  0  0  0  0  0  0  0  0  0
    3.9710    8.6420   -2.4390 H   0  0  0  0  0  0  0  0  0  0  0  0
    5.9750   10.1110   -2.0680 N   0  0  0  0  0  0  0  0  0  0  0  0
    6.8550   10.6390   -1.9000 H   0  0  0  0  0  0  0  0  0  0  0  0
    5.1120   10.6170   -2.3520 H   0  0  0  0  0  0  0  0  0  0  0  0
   11.6800   13.6970    2.1500 N   0  0  0  0  0  2  0  0  0  0  0  0
   11.0060   14.3750    1.7400 H   0  0  0  0  0  0  0  0  0  0  0  0
   12.3750   12.7460    1.2760 C   0  0  2  0  0  0  0  0  0  0  0  0
   12.5890   11.8420    1.8460 H   0  0  0  0  0  0  0  0  0  0  0  0
   13.6730   13.4000    0.7880 C   0  0  0  0  0  3  0  0  0  0  0  0
   13.6690   14.3550    0.0170 O   0  0  0  0  0  0  0  0  0  0  0  0
   11.5200   12.3200    0.0890 C   0  0  0  0  0  0  0  0  0  0  0  0
   11.3570   13.1990   -0.5350 H   0  0  0  0  0  0  0  0  0  0  0  0
   12.0810   11.5750   -0.4740 H   0  0  0  0  0  0  0  0  0  0  0  0
   10.1640   11.7270    0.4160 C   0  0  0  0  0  0  0  0  0  0  0  0
   10.0310   10.3500    0.7370 C   0  0  0  0  0  0  0  0  0  0  0  0
   10.9170    9.7150    0.7680 H   0  0  0  0  0  0  0  0  0  0  0  0
    9.0060   12.5450    0.3790 C   0  0  0  0  0  0  0  0  0  0  0  0
    9.1020   13.6000    0.1210 H   0  0  0  0  0  0  0  0  0  0  0  0
    8.7740    9.8000    1.0140 C   0  0  0  0  0  0  0  0  0  0  0  0
    8.6750    8.7420    1.2580 H   0  0  0  0  0  0  0  0  0  0  0  0
    7.7410   12.0170    0.6690 C   0  0  0  0  0  0  0  0  0  0  0  0
    6.8570   12.6550    0.6610 H   0  0  0  0  0  0  0  0  0  0  0  0
    7.6340   10.6360    0.9730 C   0  0  0  0  0  0  0  0  0  0  0  0
    6.3730   10.1120    1.2340 O   0  0  0  0  0  0  0  0  0  0  0  0
    6.4530    9.1450    1.4290 H   0  0  0  0  0  0  0  0  0  0  0  0
    6.8140   13.4770   -8.2220 H   0  0  0  0  0  0  0  0  0  0  0  0
   -8.7350    4.5970   -6.3320 H   0  0  0  0  0  0  0  0  0  0  0  0
  1  2  1  0
  1  3  1  0
  3  4  1  6
  3  5  1  0
  3  7  1  0
  5  6  2  0
  7  8  1  0
  7  9  1  0
  7 10  1  0
 10 11  2  0
 10 12  1  0
 12250  1  0
 13 14  1  0
 13 15  1  0
 15 16  1  6
 15 17  1  0
 15 19  1  0
 17 18  2  0
 17 24  1  0
 19 20  1  0
 19 21  1  0
 19 22  1  0
 22 23  1  0
 24 25  1  0
 24 26  1  0
 26 27  1  1
 26 28  1  0
 26 30  1  0
 28 29  2  0
 28 35  1  0
 30 31  1  0
 30 32  1  0
 30 33  1  0
 33 34  1  0
 35 36  1  0
 35 37  1  0
 37 38  1  6
 37 39  1  0
 37 41  1  0
 39 40  2  0
 41 42  1  0
 41 43  1  0
 41 44  1  0
 44 45  2  0
 44 47  1  0
 45 46  1  0
 45 49  1  0
 47 48  1  0
 47 51  2  0
 49 50  1  0
 49 53  2  0
 51 52  1  0
 51 53  1  0
 53 54  1  0
 55 56  1  0
 55 57  1  0
 57 58  1  6
 57 59  1  0
 57 61  1  0
 59 60  2  0
 61 62  1  0
 61 63  1  0
 61 67  1  0
 63 64  1  0
 63 65  1  0
 63 66  1  0
 67 68  1  0
 67 69  1  0
 67 70  1  0
 71 72  1  0
 71 73  1  0
 73 74  1  1
 73 75  1  0
 73 77  1  0
 75 76  2  0
 77 78  1  6
 77 79  1  0
 77 82  1  0
 79 80  1  0
 79 81  1  0
 79 86  1  0
 82 83  1  0
 82 84  1  0
 82 85  1  0
 86 87  1  0
 86 88  1  0
 86 89  1  0
 90 91  1  0
 90 92  1  0
 92 93  1  6
 92 94  1  0
 92 96  1  0
 94 95  2  0
 96 97  1  0
 96 98  1  0
 96 99  1  0
 99100  1  0
 99101  2  0
100103  2  0
101102  1  0
101105  1  0
103104  1  0
103105  1  0
105251  1  0
106107  1  0
106108  1  0
108109  1  1
108110  1  0
108112  1  0
110111  2  0
112113  1  0
112114  1  0
112118  1  0
114115  1  0
114116  1  0
114117  1  0
118119  1  0
118120  1  0
118121  1  0
122123  1  0
122124  1  0
124125  1  1
124126  1  0
124128  1  0
126127  2  0
126132  1  0
128129  1  0
128130  1  0
128131  1  0
132133  1  0
132134  1  0
134135  1  1
134136  1  0
134138  1  0
136137  2  0
136143  1  0
138139  1  0
138140  1  0
138141  1  0
141142  1  0
143144  1  0
143145  1  0
145146  1  1
145147  1  0
145149  1  0
147148  2  0
149150  1  0
149151  1  0
149152  1  0
152153  1  0
152154  1  0
152158  1  0
154155  1  0
154156  1  0
154157  1  0
158159  1  0
158160  1  0
158161  1  0
162163  1  0
162164  1  0
164165  1  6
164166  1  0
164168  1  0
166167  2  0
166184  1  0
168169  1  0
168170  1  0
168171  1  0
171172  1  0
171173  1  0
171174  1  0
174175  1  0
174176  1  0
174177  1  0
177178  1  0
177179  1  0
177180  1  0
180181  1  0
180182  1  0
180183  1  0
184185  1  0
184186  1  0
186187  1  6
186188  1  0
186190  1  0
188189  2  0
190191  1  0
190192  1  0
190193  1  0
193194  2  0
193196  1  0
194195  1  0
194198  1  0
196197  1  0
196200  2  0
198199  1  0
198202  2  0
200201  1  0
200202  1  0
202203  1  0
203204  1  0
205206  1  0
205207  1  0
207208  1  6
207209  1  0
207211  1  0
209210  2  0
211212  1  0
211213  1  0
211214  1  0
214215  1  0
214216  1  0
214217  1  0
217218  1  0
217219  1  0
217220  1  0
220221  1  0
220222  1  0
222223  2  0
222226  1  0
223224  1  0
223225  1  0
226227  1  0
226228  1  0
229230  1  0
229231  1  0
231232  1  1
231233  1  0
231235  1  0
233234  2  0
235236  1  0
235237  1  0
235238  1  0
238239  2  0
238241  1  0
239240  1  0
239243  1  0
241242  1  0
241245  2  0
243244  1  0
243247  2  0
245246  1  0
245247  1  0
247248  1  0
248249  1  0
M  RAD  8   1   2   5   2  13   2  39   2  55   2  59   2  71   2  75   2
M  RAD  8  90   2  94   2 106   2 110   2 122   2 147   2 162   2 188   2
M  CHG  2 180   1 223   1
M  RAD  4 205   2 209   2 229   2 233   2
M  END
$$$$

     RDKit          3D

251245  0  0  0  0  0  0  0  0999 V2000
    8.2390   15.7430  -10.2460 N   0  0  0  0  0  2  0  0  0  0  0  0
    8.4060   14.8450   -9.7480 H   0  0  0  0  0  0  0  0  0  0  0  0
    7.1270   16.5820   -9.8330 C   0  0  2  0  0  0  0  0  0  0  0  0
    6.5240   16.7530  -10.7240 H   0  0  0  0  0  0  0  0  0  0  0  0
    7.5010   17.9630   -9.3590 C   0  0  0  0  0  3  0  0  0  0  0  0
    8.3130   18.1090   -8.4540 O   0  0  0  0  0  0  0  0  0  0  0  0
    6.3630   15.8620   -8.7680 C   0  0  0  0  0  0  0  0  0  0  0  0
    7.0440   15.5910   -7.9610 H   0  0  0  0  0  0  0  0  0  0  0  0
    5.5850   16.5200   -8.3800 H   0  0  0  0  0  0  0  0  0  0  0  0
    5.7360   14.6350   -9.3040 C   0  0  0  0  0  0  0  0  0  0  0  0
    4.8520   14.7920  -10.1880 O   0  0  0  0  0  0  0  0  0  0  0  0
    6.1520   13.5130   -8.8840 O   0  0  0  0  0  0  0  0  0  0  0  0
    1.6580   16.8130  -11.9920 N   0  0  0  0  0  2  0  0  0  0  0  0
    2.3630   16.6600  -11.2430 H   0  0  0  0  0  0  0  0  0  0  0  0
    0.5750   15.8710  -12.1280 C   0  0  2  0  0  0  0  0  0  0  0  0
    0.1290   15.9910  -13.1150 H   0  0  0  0  0  0  0  0  0  0  0  0
   -0.5220   16.1130  -11.1130 C   0  0  0  0  0  0  0  0  0  0  0  0
   -0.2990   16.7340  -10.0760 O   0  0  0  0  0  0  0  0  0  0  0  0
    1.1300   14.4960  -11.9520 C   0  0  0  0  0  0  0  0  0  0  0  0
    0.3140   13.7740  -11.9180 H   0  0  0  0  0  0  0  0  0  0  0  0
    1.6970   14.4460  -11.0220 H   0  0  0  0  0  0  0  0  0  0  0  0
    1.9940   14.1960  -13.0610 O   0  0  0  0  0  0  0  0  0  0  0  0
    2.3660   13.2850  -12.9510 H   0  0  0  0  0  0  0  0  0  0  0  0
   -1.7070   15.5990  -11.3820 N   0  0  0  0  0  0  0  0  0  0  0  0
   -1.8300   15.0390  -12.2500 H   0  0  0  0  0  0  0  0  0  0  0  0
   -2.8500   15.7940  -10.4960 C   0  0  2  0  0  0  0  0  0  0  0  0
   -2.4940   15.6940   -9.4710 H   0  0  0  0  0  0  0  0  0  0  0  0
   -3.9360   14.7420  -10.7100 C   0  0  0  0  0  0  0  0  0  0  0  0
   -4.1170   14.2150  -11.8220 O   0  0  0  0  0  0  0  0  0  0  0  0
   -3.4310   17.1680  -10.7260 C   0  0  0  0  0  0  0  0  0  0  0  0
   -3.6970   17.2780  -11.7770 H   0  0  0  0  0  0  0  0  0  0  0  0
   -2.6920   17.9230  -10.4590 H   0  0  0  0  0  0  0  0  0  0  0  0
   -4.5930   17.3400   -9.9250 O   0  0  0  0  0  0  0  0  0  0  0  0
   -4.9690   18.2430  -10.0800 H   0  0  0  0  0  0  0  0  0  0  0  0
   -4.6520   14.4140   -9.6350 N   0  0  0  0  0  0  0  0  0  0  0  0
   -4.3590   14.7920   -8.7110 H   0  0  0  0  0  0  0  0  0  0  0  0
   -5.8320   13.5460   -9.6910 C   0  0  2  0  0  0  0  0  0  0  0  0
   -5.6450   12.7780  -10.4420 H   0  0  0  0  0  0  0  0  0  0  0  0
   -7.0770   14.3290  -10.1220 C   0  0  0  0  0  3  0  0  0  0  0  0
   -8.0250   13.7390  -10.5890 O   0  0  0  0  0  0  0  0  0  0  0  0
   -6.0610   12.8570   -8.3570 C   0  0  0  0  0  0  0  0  0  0  0  0
   -5.9730   13.6020   -7.5670 H   0  0  0  0  0  0  0  0  0  0  0  0
   -7.0700   12.4440   -8.3540 H   0  0  0  0  0  0  0  0  0  0  0  0
   -5.0730   11.7210   -8.0610 C   0  0  0  0  0  0  0  0  0  0  0  0
   -4.0720   11.8810   -7.1020 C   0  0  0  0  0  0  0  0  0  0  0  0
   -3.9860   12.8270   -6.5670 H   0  0  0  0  0  0  0  0  0  0  0  0
   -5.1740   10.4980   -8.7080 C   0  0  0  0  0  0  0  0  0  0  0  0
   -5.9560   10.3530   -9.4530 H   0  0  0  0  0  0  0  0  0  0  0  0
   -3.1820   10.8480   -6.8190 C   0  0  0  0  0  0  0  0  0  0  0  0
   -2.4060   10.9870   -6.0660 H   0  0  0  0  0  0  0  0  0  0  0  0
   -4.2920    9.4420   -8.4250 C   0  0  0  0  0  0  0  0  0  0  0  0
   -4.4060    8.4830   -8.9310 H   0  0  0  0  0  0  0  0  0  0  0  0
   -3.2860    9.6220   -7.5080 C   0  0  0  0  0  0  0  0  0  0  0  0
   -2.5720    8.8220   -7.3140 H   0  0  0  0  0  0  0  0  0  0  0  0
   -3.3140    5.0230  -13.0570 N   0  0  0  0  0  2  0  0  0  0  0  0
   -4.1400    5.6150  -12.8370 H   0  0  0  0  0  0  0  0  0  0  0  0
   -2.5170    4.4610  -11.9940 C   0  0  2  0  0  0  0  0  0  0  0  0
   -1.7250    3.8470  -12.4230 H   0  0  0  0  0  0  0  0  0  0  0  0
   -3.4380    3.6400  -11.1070 C   0  0  0  0  0  3  0  0  0  0  0  0
   -4.4710    4.1900  -10.6370 O   0  0  0  0  0  0  0  0  0  0  0  0
   -1.8540    5.5840  -11.1350 C   0  0  0  0  0  0  0  0  0  0  0  0
   -2.6490    6.2450  -10.7900 H   0  0  0  0  0  0  0  0  0  0  0  0
   -1.1450    4.9970   -9.9330 C   0  0  0  0  0  0  0  0  0  0  0  0
   -1.8650    4.4610   -9.3150 H   0  0  0  0  0  0  0  0  0  0  0  0
   -0.3700    4.3090  -10.2700 H   0  0  0  0  0  0  0  0  0  0  0  0
   -0.6920    5.8000   -9.3520 H   0  0  0  0  0  0  0  0  0  0  0  0
   -0.8790    6.3820  -11.9530 C   0  0  0  0  0  0  0  0  0  0  0  0
   -0.0980    5.7220  -12.3300 H   0  0  0  0  0  0  0  0  0  0  0  0
   -1.4020    6.8440  -12.7900 H   0  0  0  0  0  0  0  0  0  0  0  0
   -0.4320    7.1570  -11.3300 H   0  0  0  0  0  0  0  0  0  0  0  0
   -4.5210    2.0210   -7.7850 N   0  0  0  0  0  2  0  0  0  0  0  0
   -5.4600    2.1270   -8.2190 H   0  0  0  0  0  0  0  0  0  0  0  0
   -4.3760    2.2860   -6.3400 C   0  0  2  0  0  0  0  0  0  0  0  0
   -3.3700    1.9630   -6.0710 H   0  0  0  0  0  0  0  0  0  0  0  0
   -5.3740    1.4700   -5.5200 C   0  0  0  0  0  3  0  0  0  0  0  0
   -6.6090    1.7400   -5.5300 O   0  0  0  0  0  0  0  0  0  0  0  0
   -4.4620    3.8040   -5.9870 C   0  0  2  0  0  0  0  0  0  0  0  0
   -5.4400    4.1780   -6.2900 H   0  0  0  0  0  0  0  0  0  0  0  0
   -3.3750    4.5860   -6.7450 C   0  0  0  0  0  0  0  0  0  0  0  0
   -2.4260    4.4330   -6.2310 H   0  0  0  0  0  0  0  0  0  0  0  0
   -3.3090    4.1820   -7.7550 H   0  0  0  0  0  0  0  0  0  0  0  0
   -4.3050    4.0130   -4.4580 C   0  0  0  0  0  0  0  0  0  0  0  0
   -5.1000    3.4810   -3.9360 H   0  0  0  0  0  0  0  0  0  0  0  0
   -3.3370    3.6280   -4.1370 H   0  0  0  0  0  0  0  0  0  0  0  0
   -4.3670    5.0770   -4.2300 H   0  0  0  0  0  0  0  0  0  0  0  0
   -3.6210    6.0930   -6.8510 C   0  0  0  0  0  0  0  0  0  0  0  0
   -4.5590    6.2710   -7.3760 H   0  0  0  0  0  0  0  0  0  0  0  0
   -3.6760    6.5220   -5.8510 H   0  0  0  0  0  0  0  0  0  0  0  0
   -2.8020    6.5560   -7.4010 H   0  0  0  0  0  0  0  0  0  0  0  0
   -7.1030    4.9550  -11.2140 N   0  0  0  0  0  2  0  0  0  0  0  0
   -6.1220    4.6450  -11.0650 H   0  0  0  0  0  0  0  0  0  0  0  0
   -7.3690    6.3930  -11.2260 C   0  0  2  0  0  0  0  0  0  0  0  0
   -8.4260    6.5500  -11.4390 H   0  0  0  0  0  0  0  0  0  0  0  0
   -6.5510    7.1110  -12.3230 C   0  0  0  0  0  3  0  0  0  0  0  0
   -5.3670    6.8340  -12.4820 O   0  0  0  0  0  0  0  0  0  0  0  0
   -6.9990    6.9690   -9.8590 C   0  0  0  0  0  0  0  0  0  0  0  0
   -5.9460    6.7590   -9.6690 H   0  0  0  0  0  0  0  0  0  0  0  0
   -7.1550    8.0480   -9.8840 H   0  0  0  0  0  0  0  0  0  0  0  0
   -7.8100    6.3970   -8.7320 C   0  0  0  0  0  0  0  0  0  0  0  0
   -9.1120    6.7880   -8.4820 N   0  0  0  0  0  0  0  0  0  0  0  0
   -7.5200    5.4300   -7.8250 C   0  0  0  0  0  0  0  0  0  0  0  0
   -6.5730    4.9000   -7.7210 H   0  0  0  0  0  0  0  0  0  0  0  0
   -9.5840    6.0790   -7.4730 C   0  0  0  0  0  0  0  0  0  0  0  0
  -10.5840    6.1660   -7.0470 H   0  0  0  0  0  0  0  0  0  0  0  0
   -8.6430    5.2470   -7.0660 N   0  0  0  0  0  0  0  0  0  0  0  0
   -4.3430    9.9870  -13.8600 N   0  0  0  0  0  2  0  0  0  0  0  0
   -3.9430    9.2670  -14.4950 H   0  0  0  0  0  0  0  0  0  0  0  0
   -3.4660   11.0950  -13.4060 C   0  0  2  0  0  0  0  0  0  0  0  0
   -3.9980   11.6020  -12.6010 H   0  0  0  0  0  0  0  0  0  0  0  0
   -3.1980   12.0700  -14.5610 C   0  0  0  0  0  3  0  0  0  0  0  0
   -2.6940   11.6660  -15.6100 O   0  0  0  0  0  0  0  0  0  0  0  0
   -2.1230   10.5980  -12.8370 C   0  0  0  0  0  0  0  0  0  0  0  0
   -1.6160   10.0380  -13.6230 H   0  0  0  0  0  0  0  0  0  0  0  0
   -1.2160   11.7770  -12.4230 C   0  0  0  0  0  0  0  0  0  0  0  0
   -1.0140   12.4010  -13.2930 H   0  0  0  0  0  0  0  0  0  0  0  0
   -1.7190   12.3690  -11.6580 H   0  0  0  0  0  0  0  0  0  0  0  0
   -0.2780   11.3900  -12.0260 H   0  0  0  0  0  0  0  0  0  0  0  0
   -2.3600    9.6900  -11.6480 C   0  0  0  0  0  0  0  0  0  0  0  0
   -2.8940   10.2400  -10.8730 H   0  0  0  0  0  0  0  0  0  0  0  0
   -2.9540    8.8310  -11.9610 H   0  0  0  0  0  0  0  0  0  0  0  0
   -1.4020    9.3470  -11.2570 H   0  0  0  0  0  0  0  0  0  0  0  0
   10.6540   11.3050   -5.5760 N   0  0  0  0  0  2  0  0  0  0  0  0
   10.3920   12.2850   -5.8030 H   0  0  0  0  0  0  0  0  0  0  0  0
   10.0940   10.6720   -4.3490 C   0  0  2  0  0  0  0  0  0  0  0  0
   10.8680    9.9920   -3.9930 H   0  0  0  0  0  0  0  0  0  0  0  0
    8.8430    9.8410   -4.6350 C   0  0  0  0  0  0  0  0  0  0  0  0
    8.3760    9.1070   -3.7350 O   0  0  0  0  0  0  0  0  0  0  0  0
    9.8210   11.6790   -3.2540 C   0  0  0  0  0  0  0  0  0  0  0  0
   10.7510   12.1790   -2.9810 H   0  0  0  0  0  0  0  0  0  0  0  0
    9.1020   12.4160   -3.6110 H   0  0  0  0  0  0  0  0  0  0  0  0
    9.4140   11.1650   -2.3830 H   0  0  0  0  0  0  0  0  0  0  0  0
    8.3280    9.9240   -5.8760 N   0  0  0  0  0  0  0  0  0  0  0  0
    8.8050   10.5390   -6.5650 H   0  0  0  0  0  0  0  0  0  0  0  0
    7.1420    9.2010   -6.3060 C   0  0  2  0  0  0  0  0  0  0  0  0
    6.4000    9.3360   -5.5190 H   0  0  0  0  0  0  0  0  0  0  0  0
    7.4250    7.7530   -6.4980 C   0  0  0  0  0  0  0  0  0  0  0  0
    8.5700    7.2700   -6.4620 O   0  0  0  0  0  0  0  0  0  0  0  0
    6.6180    9.7450   -7.6390 C   0  0  0  0  0  0  0  0  0  0  0  0
    5.6190    9.3460   -7.8150 H   0  0  0  0  0  0  0  0  0  0  0  0
    7.2840    9.4210   -8.4390 H   0  0  0  0  0  0  0  0  0  0  0  0
    6.5530   11.1910   -7.6390 O   0  0  0  0  0  0  0  0  0  0  0  0
    6.2110   11.5050   -8.5140 H   0  0  0  0  0  0  0  0  0  0  0  0
    6.3550    7.0580   -6.8100 N   0  0  0  0  0  0  0  0  0  0  0  0
    5.4610    7.5640   -6.9720 H   0  0  0  0  0  0  0  0  0  0  0  0
    6.3700    5.6400   -6.9350 C   0  0  2  0  0  0  0  0  0  0  0  0
    7.1620    5.1570   -6.3640 H   0  0  0  0  0  0  0  0  0  0  0  0
    6.5790    5.3360   -8.4090 C   0  0  0  0  0  3  0  0  0  0  0  0
    6.0940    6.0730   -9.2600 O   0  0  0  0  0  0  0  0  0  0  0  0
    5.0220    5.1190   -6.4090 C   0  0  0  0  0  0  0  0  0  0  0  0
    4.2350    5.7010   -6.8870 H   0  0  0  0  0  0  0  0  0  0  0  0
    4.9330    4.0750   -6.7090 H   0  0  0  0  0  0  0  0  0  0  0  0
    4.7900    5.1880   -4.8740 C   0  0  0  0  0  0  0  0  0  0  0  0
    5.0100    6.2120   -4.5710 H   0  0  0  0  0  0  0  0  0  0  0  0
    3.3110    4.7880   -4.5700 C   0  0  0  0  0  0  0  0  0  0  0  0
    2.6380    5.4790   -5.0770 H   0  0  0  0  0  0  0  0  0  0  0  0
    3.1300    3.7740   -4.9260 H   0  0  0  0  0  0  0  0  0  0  0  0
    3.1370    4.8330   -3.4950 H   0  0  0  0  0  0  0  0  0  0  0  0
    5.7270    4.2640   -4.0560 C   0  0  0  0  0  0  0  0  0  0  0  0
    5.5710    3.2290   -4.3610 H   0  0  0  0  0  0  0  0  0  0  0  0
    6.7640    4.5460   -4.2400 H   0  0  0  0  0  0  0  0  0  0  0  0
    5.5030    4.3690   -2.9940 H   0  0  0  0  0  0  0  0  0  0  0  0
    5.3050    3.2970  -10.3550 N   0  0  0  0  0  2  0  0  0  0  0  0
    5.3190    3.2100   -9.3190 H   0  0  0  0  0  0  0  0  0  0  0  0
    4.1120    2.9140  -11.0930 C   0  0  2  0  0  0  0  0  0  0  0  0
    4.3770    2.2010  -11.8730 H   0  0  0  0  0  0  0  0  0  0  0  0
    3.5250    4.1710  -11.7290 C   0  0  0  0  0  0  0  0  0  0  0  0
    2.8290    4.0740  -12.7370 O   0  0  0  0  0  0  0  0  0  0  0  0
    3.0890    2.1810  -10.2000 C   0  0  0  0  0  0  0  0  0  0  0  0
    2.2390    1.8870  -10.8160 H   0  0  0  0  0  0  0  0  0  0  0  0
    3.5630    1.2900   -9.7890 H   0  0  0  0  0  0  0  0  0  0  0  0
    2.5850    3.0260   -9.0590 C   0  0  0  0  0  0  0  0  0  0  0  0
    3.2850    2.9380   -8.2280 H   0  0  0  0  0  0  0  0  0  0  0  0
    2.5440    4.0640   -9.3890 H   0  0  0  0  0  0  0  0  0  0  0  0
    1.2080    2.6210   -8.5730 C   0  0  0  0  0  0  0  0  0  0  0  0
    0.7530    3.4710   -8.0650 H   0  0  0  0  0  0  0  0  0  0  0  0
    0.6000    2.3470   -9.4350 H   0  0  0  0  0  0  0  0  0  0  0  0
    1.2480    1.4500   -7.6160 C   0  0  0  0  0  0  0  0  0  0  0  0
    2.1300    1.5540   -6.9850 H   0  0  0  0  0  0  0  0  0  0  0  0
    1.3270    0.5330   -8.2000 H   0  0  0  0  0  0  0  0  0  0  0  0
    0.0220    1.3380   -6.7120 N   0  0  0  0  0  4  0  0  0  0  0  0
   -0.0630    2.2000   -6.1370 H   0  0  0  0  0  0  0  0  0  0  0  0
   -0.8300    1.2250   -7.2980 H   0  0  0  0  0  0  0  0  0  0  0  0
    0.1270    0.5130   -6.0880 H   0  0  0  0  0  0  0  0  0  0  0  0
    3.8150    5.3320  -11.1570 N   0  0  0  0  0  0  0  0  0  0  0  0
    4.3440    5.3460  -10.2620 H   0  0  0  0  0  0  0  0  0  0  0  0
    3.4060    6.5700  -11.7600 C   0  0  2  0  0  0  0  0  0  0  0  0
    2.6010    6.3500  -12.4610 H   0  0  0  0  0  0  0  0  0  0  0  0
    4.5830    7.2000  -12.5340 C   0  0  0  0  0  3  0  0  0  0  0  0
    4.3900    7.6850  -13.6440 O   0  0  0  0  0  0  0  0  0  0  0  0
    2.8330    7.5740  -10.6990 C   0  0  0  0  0  0  0  0  0  0  0  0
    1.7520    7.4410  -10.6510 H   0  0  0  0  0  0  0  0  0  0  0  0
    3.2710    7.3350   -9.7300 H   0  0  0  0  0  0  0  0  0  0  0  0
    3.1220    9.0400  -11.0060 C   0  0  0  0  0  0  0  0  0  0  0  0
    2.4190    9.6990  -11.9770 C   0  0  0  0  0  0  0  0  0  0  0  0
    1.6340    9.1740  -12.5200 H   0  0  0  0  0  0  0  0  0  0  0  0
    4.1580    9.7400  -10.3510 C   0  0  0  0  0  0  0  0  0  0  0  0
    4.7460    9.2230   -9.5930 H   0  0  0  0  0  0  0  0  0  0  0  0
    2.7000   11.0760  -12.2930 C   0  0  0  0  0  0  0  0  0  0  0  0
    2.1060   11.5870  -13.0510 H   0  0  0  0  0  0  0  0  0  0  0  0
    4.4620   11.1120  -10.6520 C   0  0  0  0  0  0  0  0  0  0  0  0
    5.2550   11.6380  -10.1200 H   0  0  0  0  0  0  0  0  0  0  0  0
    3.7150   11.7570  -11.6450 C   0  0  0  0  0  0  0  0  0  0  0  0
    3.9630   13.0750  -12.0290 O   0  0  0  0  0  0  0  0  0  0  0  0
    3.3260   13.3360  -12.7410 H   0  0  0  0  0  0  0  0  0  0  0  0
   10.9780    6.3050   -4.9480 N   0  0  0  0  0  2  0  0  0  0  0  0
   10.1880    5.9880   -5.5450 H   0  0  0  0  0  0  0  0  0  0  0  0
   10.7200    6.5580   -3.5270 C   0  0  2  0  0  0  0  0  0  0  0  0
   10.9690    7.6020   -3.3390 H   0  0  0  0  0  0  0  0  0  0  0  0
   11.6250    5.7190   -2.6400 C   0  0  0  0  0  3  0  0  0  0  0  0
   12.2670    6.2920   -1.7970 O   0  0  0  0  0  0  0  0  0  0  0  0
    9.2040    6.4100   -3.1540 C   0  0  0  0  0  0  0  0  0  0  0  0
    8.6640    7.2090   -3.6620 H   0  0  0  0  0  0  0  0  0  0  0  0
    8.8680    5.4460   -3.5360 H   0  0  0  0  0  0  0  0  0  0  0  0
    8.8060    6.4750   -1.6050 C   0  0  0  0  0  0  0  0  0  0  0  0
    9.0730    5.5270   -1.1380 H   0  0  0  0  0  0  0  0  0  0  0  0
    9.3690    7.2810   -1.1350 H   0  0  0  0  0  0  0  0  0  0  0  0
    7.2710    6.7340   -1.3710 C   0  0  0  0  0  0  0  0  0  0  0  0
    6.9860    6.4380   -0.3620 H   0  0  0  0  0  0  0  0  0  0  0  0
    6.6770    6.1740   -2.0940 H   0  0  0  0  0  0  0  0  0  0  0  0
    7.0740    8.1750   -1.5550 N   0  0  0  0  0  0  0  0  0  0  0  0
    7.9010    8.7810   -1.3810 H   0  0  0  0  0  0  0  0  0  0  0  0
    5.9530    8.7950   -1.9200 C   0  0  0  0  0  0  0  0  0  0  0  0
    4.8300    8.1290   -2.1550 N   0  0  0  0  0  4  0  0  0  0  0  0
    4.8090    7.0940   -2.0560 H   0  0  0  0  0  0  0  0  0  0  0  0
    3.9710    8.6420   -2.4390 H   0  0  0  0  0  0  0  0  0  0  0  0
    5.9750   10.1110   -2.0680 N   0  0  0  0  0  0  0  0  0  0  0  0
    6.8550   10.6390   -1.9000 H   0  0  0  0  0  0  0  0  0  0  0  0
    5.1120   10.6170   -2.3520 H   0  0  0  0  0  0  0  0  0  0  0  0
   11.6800   13.6970    2.1500 N   0  0  0  0  0  2  0  0  0  0  0  0
   11.0060   14.3750    1.7400 H   0  0  0  0  0  0  0  0  0  0  0  0
   12.3750   12.7460    1.2760 C   0  0  2  0  0  0  0  0  0  0  0  0
   12.5890   11.8420    1.8460 H   0  0  0  0  0  0  0  0  0  0  0  0
   13.6730   13.4000    0.7880 C   0  0  0  0  0  3  0  0  0  0  0  0
   13.6690   14.3550    0.0170 O   0  0  0  0  0  0  0  0  0  0  0  0
   11.5200   12.3200    0.0890 C   0  0  0  0  0  0  0  0  0  0  0  0
   11.3570   13.1990   -0.5350 H   0  0  0  0  0  0  0  0  0  0  0  0
   12.0810   11.5750   -0.4740 H   0  0  0  0  0  0  0  0  0  0  0  0
   10.1640   11.7270    0.4160 C   0  0  0  0  0  0  0  0  0  0  0  0
   10.0310   10.3500    0.7370 C   0  0  0  0  0  0  0  0  0  0  0  0
   10.9170    9.7150    0.7680 H   0  0  0  0  0  0  0  0  0  0  0  0
    9.0060   12.5450    0.3790 C   0  0  0  0  0  0  0  0  0  0  0  0
    9.1020   13.6000    0.1210 H   0  0  0  0  0  0  0  0  0  0  0  0
    8.7740    9.8000    1.0140 C   0  0  0  0  0  0  0  0  0  0  0  0
    8.6750    8.7420    1.2580 H   0  0  0  0  0  0  0  0  0  0  0  0
    7.7410   12.0170    0.6690 C   0  0  0  0  0  0  0  0  0  0  0  0
    6.8570   12.6550    0.6610 H   0  0  0  0  0  0  0  0  0  0  0  0
    7.6340   10.6360    0.9730 C   0  0  0  0  0  0  0  0  0  0  0  0
    6.3730   10.1120    1.2340 O   0  0  0  0  0  0  0  0  0  0  0  0
    6.4530    9.1450    1.4290 H   0  0  0  0  0  0  0  0  0  0  0  0
    6.8140   13.4770   -8.2220 H   0  0  0  0  0  0  0  0  0  0  0  0
   -8.7350    4.5970   -6.3320 H   0  0  0  0  0  0  0  0  0  0  0  0
  1  2  1  0
  1  3  1  0
  3  4  1  6
  3  5  1  0
  3  7  1  0
  5  6  2  0
  7  8  1  0
  7  9  1  0
  7 10  1  0
 10 11  2  0
 10 12  1  0
 12250  1  0
 13 14  1  0
 13 15  1  0
 15 16  1  6
 15 17  1  0
 15 19  1  0
 17 18  2  0
 17 24  1  0
 19 20  1  0
 19 21  1  0
 19 22  1  0
 22 23  1  0
 24 25  1  0
 24 26  1  0
 26 27  1  1
 26 28  1  0
 26 30  1  0
 28 29  2  0
 28 35  1  0
 30 31  1  0
 30 32  1  0
 30 33  1  0
 33 34  1  0
 35 36  1  0
 35 37  1  0
 37 38  1  6
 37 39  1  0
 37 41  1  0
 39 40  2  0
 41 42  1  0
 41 43  1  0
 41 44  1  0
 44 45  2  0
 44 47  1  0
 45 46  1  0
 45 49  1  0
 47 48  1  0
 47 51  2  0
 49 50  1  0
 49 53  2  0
 51 52  1  0
 51 53  1  0
 53 54  1  0
 55 56  1  0
 55 57  1  0
 57 58  1  6
 57 59  1  0
 57 61  1  0
 59 60  2  0
 61 62  1  0
 61 63  1  0
 61 67  1  0
 63 64  1  0
 63 65  1  0
 63 66  1  0
 67 68  1  0
 67 69  1  0
 67 70  1  0
 71 72  1  0
 71 73  1  0
 73 74  1  1
 73 75  1  0
 73 77  1  0
 75 76  2  0
 77 78  1  6
 77 79  1  0
 77 82  1  0
 79 80  1  0
 79 81  1  0
 79 86  1  0
 82 83  1  0
 82 84  1  0
 82 85  1  0
 86 87  1  0
 86 88  1  0
 86 89  1  0
 90 91  1  0
 90 92  1  0
 92 93  1  6
 92 94  1  0
 92 96  1  0
 94 95  2  0
 96 97  1  0
 96 98  1  0
 96 99  1  0
 99100  1  0
 99101  2  0
100103  2  0
101102  1  0
101105  1  0
103104  1  0
103105  1  0
105251  1  0
106107  1  0
106108  1  0
108109  1  1
108110  1  0
108112  1  0
110111  2  0
112113  1  0
112114  1  0
112118  1  0
114115  1  0
114116  1  0
114117  1  0
118119  1  0
118120  1  0
118121  1  0
122123  1  0
122124  1  0
124125  1  1
124126  1  0
124128  1  0
126127  2  0
126132  1  0
128129  1  0
128130  1  0
128131  1  0
132133  1  0
132134  1  0
134135  1  1
134136  1  0
134138  1  0
136137  2  0
136143  1  0
138139  1  0
138140  1  0
138141  1  0
141142  1  0
143144  1  0
143145  1  0
145146  1  1
145147  1  0
145149  1  0
147148  2  0
149150  1  0
149151  1  0
149152  1  0
152153  1  0
152154  1  0
152158  1  0
154155  1  0
154156  1  0
154157  1  0
158159  1  0
158160  1  0
158161  1  0
162163  1  0
162164  1  0
164165  1  6
164166  1  0
164168  1  0
166167  2  0
166184  1  0
168169  1  0
168170  1  0
168171  1  0
171172  1  0
171173  1  0
171174  1  0
174175  1  0
174176  1  0
174177  1  0
177178  1  0
177179  1  0
177180  1  0
180181  1  0
180182  1  0
180183  1  0
184185  1  0
184186  1  0
186187  1  6
186188  1  0
186190  1  0
188189  2  0
190191  1  0
190192  1  0
190193  1  0
193194  2  0
193196  1  0
194195  1  0
194198  1  0
196197  1  0
196200  2  0
198199  1  0
198202  2  0
200201  1  0
200202  1  0
202203  1  0
203204  1  0
205206  1  0
205207  1  0
207208  1  6
207209  1  0
207211  1  0
209210  2  0
211212  1  0
211213  1  0
211214  1  0
214215  1  0
214216  1  0
214217  1  0
217218  1  0
217219  1  0
217220  1  0
220221  1  0
220222  1  0
222223  2  0
222226  1  0
223224  1  0
223225  1  0
226227  1  0
226228  1  0
229230  1  0
229231  1  0
231232  1  1
231233  1  0
231235  1  0
233234  2  0
235236  1  0
235237  1  0
235238  1  0
238239  2  0
238241  1  0
239240  1  0
239243  1  0
241242  1  0
241245  2  0
243244  1  0
243247  2  0
245246  1  0
245247  1  0
247248  1  0
248249  1  0
M  RAD  8   1   2   5   2  13   2  39   2  55   2  59   2  71   2  75   2
M  RAD  8  90   2  94   2 106   2 110   2 122   2 147   2 162   2 188   2
M  CHG  2 180   1 223   1
M  RAD  4 205   2 209   2 229   2 233   2
M  END
$$$$

     RDKit          3D

251245  0  0  0  0  0  0  0  0999 V2000
    8.2390   15.7430  -10.2460 N   0  0  0  0  0  2  0  0  0  0  0  0
    8.4060   14.8450   -9.7480 H   0  0  0  0  0  0  0  0  0  0  0  0
    7.1270   16.5820   -9.8330 C   0  0  2  0  0  0  0  0  0  0  0  0
    6.5240   16.7530  -10.7240 H   0  0  0  0  0  0  0  0  0  0  0  0
    7.5010   17.9630   -9.3590 C   0  0  0  0  0  3  0  0  0  0  0  0
    8.3130   18.1090   -8.4540 O   0  0  0  0  0  0  0  0  0  0  0  0
    6.3630   15.8620   -8.7680 C   0  0  0  0  0  0  0  0  0  0  0  0
    7.0440   15.5910   -7.9610 H   0  0  0  0  0  0  0  0  0  0  0  0
    5.5850   16.5200   -8.3800 H   0  0  0  0  0  0  0  0  0  0  0  0
    5.7360   14.6350   -9.3040 C   0  0  0  0  0  0  0  0  0  0  0  0
    4.8520   14.7920  -10.1880 O   0  0  0  0  0  0  0  0  0  0  0  0
    6.1520   13.5130   -8.8840 O   0  0  0  0  0  0  0  0  0  0  0  0
    1.6580   16.8130  -11.9920 N   0  0  0  0  0  2  0  0  0  0  0  0
    2.3630   16.6600  -11.2430 H   0  0  0  0  0  0  0  0  0  0  0  0
    0.5750   15.8710  -12.1280 C   0  0  2  0  0  0  0  0  0  0  0  0
    0.1290   15.9910  -13.1150 H   0  0  0  0  0  0  0  0  0  0  0  0
   -0.5220   16.1130  -11.1130 C   0  0  0  0  0  0  0  0  0  0  0  0
   -0.2990   16.7340  -10.0760 O   0  0  0  0  0  0  0  0  0  0  0  0
    1.1300   14.4960  -11.9520 C   0  0  0  0  0  0  0  0  0  0  0  0
    0.3140   13.7740  -11.9180 H   0  0  0  0  0  0  0  0  0  0  0  0
    1.6970   14.4460  -11.0220 H   0  0  0  0  0  0  0  0  0  0  0  0
    1.9940   14.1960  -13.0610 O   0  0  0  0  0  0  0  0  0  0  0  0
    2.3660   13.2850  -12.9510 H   0  0  0  0  0  0  0  0  0  0  0  0
   -1.7070   15.5990  -11.3820 N   0  0  0  0  0  0  0  0  0  0  0  0
   -1.8300   15.0390  -12.2500 H   0  0  0  0  0  0  0  0  0  0  0  0
   -2.8500   15.7940  -10.4960 C   0  0  2  0  0  0  0  0  0  0  0  0
   -2.4940   15.6940   -9.4710 H   0  0  0  0  0  0  0  0  0  0  0  0
   -3.9360   14.7420  -10.7100 C   0  0  0  0  0  0  0  0  0  0  0  0
   -4.1170   14.2150  -11.8220 O   0  0  0  0  0  0  0  0  0  0  0  0
   -3.4310   17.1680  -10.7260 C   0  0  0  0  0  0  0  0  0  0  0  0
   -3.6970   17.2780  -11.7770 H   0  0  0  0  0  0  0  0  0  0  0  0
   -2.6920   17.9230  -10.4590 H   0  0  0  0  0  0  0  0  0  0  0  0
   -4.5930   17.3400   -9.9250 O   0  0  0  0  0  0  0  0  0  0  0  0
   -4.9690   18.2430  -10.0800 H   0  0  0  0  0  0  0  0  0  0  0  0
   -4.6520   14.4140   -9.6350 N   0  0  0  0  0  0  0  0  0  0  0  0
   -4.3590   14.7920   -8.7110 H   0  0  0  0  0  0  0  0  0  0  0  0
   -5.8320   13.5460   -9.6910 C   0  0  2  0  0  0  0  0  0  0  0  0
   -5.6450   12.7780  -10.4420 H   0  0  0  0  0  0  0  0  0  0  0  0
   -7.0770   14.3290  -10.1220 C   0  0  0  0  0  3  0  0  0  0  0  0
   -8.0250   13.7390  -10.5890 O   0  0  0  0  0  0  0  0  0  0  0  0
   -6.0610   12.8570   -8.3570 C   0  0  0  0  0  0  0  0  0  0  0  0
   -5.9730   13.6020   -7.5670 H   0  0  0  0  0  0  0  0  0  0  0  0
   -7.0700   12.4440   -8.3540 H   0  0  0  0  0  0  0  0  0  0  0  0
   -5.0730   11.7210   -8.0610 C   0  0  0  0  0  0  0  0  0  0  0  0
   -4.0720   11.8810   -7.1020 C   0  0  0  0  0  0  0  0  0  0  0  0
   -3.9860   12.8270   -6.5670 H   0  0  0  0  0  0  0  0  0  0  0  0
   -5.1740   10.4980   -8.7080 C   0  0  0  0  0  0  0  0  0  0  0  0
   -5.9560   10.3530   -9.4530 H   0  0  0  0  0  0  0  0  0  0  0  0
   -3.1820   10.8480   -6.8190 C   0  0  0  0  0  0  0  0  0  0  0  0
   -2.4060   10.9870   -6.0660 H   0  0  0  0  0  0  0  0  0  0  0  0
   -4.2920    9.4420   -8.4250 C   0  0  0  0  0  0  0  0  0  0  0  0
   -4.4060    8.4830   -8.9310 H   0  0  0  0  0  0  0  0  0  0  0  0
   -3.2860    9.6220   -7.5080 C   0  0  0  0  0  0  0  0  0  0  0  0
   -2.5720    8.8220   -7.3140 H   0  0  0  0  0  0  0  0  0  0  0  0
   -3.3140    5.0230  -13.0570 N   0  0  0  0  0  2  0  0  0  0  0  0
   -4.1400    5.6150  -12.8370 H   0  0  0  0  0  0  0  0  0  0  0  0
   -2.5170    4.4610  -11.9940 C   0  0  2  0  0  0  0  0  0  0  0  0
   -1.7250    3.8470  -12.4230 H   0  0  0  0  0  0  0  0  0  0  0  0
   -3.4380    3.6400  -11.1070 C   0  0  0  0  0  3  0  0  0  0  0  0
   -4.4710    4.1900  -10.6370 O   0  0  0  0  0  0  0  0  0  0  0  0
   -1.8540    5.5840  -11.1350 C   0  0  0  0  0  0  0  0  0  0  0  0
   -2.6490    6.2450  -10.7900 H   0  0  0  0  0  0  0  0  0  0  0  0
   -1.1450    4.9970   -9.9330 C   0  0  0  0  0  0  0  0  0  0  0  0
   -1.8650    4.4610   -9.3150 H   0  0  0  0  0  0  0  0  0  0  0  0
   -0.3700    4.3090  -10.2700 H   0  0  0  0  0  0  0  0  0  0  0  0
   -0.6920    5.8000   -9.3520 H   0  0  0  0  0  0  0  0  0  0  0  0
   -0.8790    6.3820  -11.9530 C   0  0  0  0  0  0  0  0  0  0  0  0
   -0.0980    5.7220  -12.3300 H   0  0  0  0  0  0  0  0  0  0  0  0
   -1.4020    6.8440  -12.7900 H   0  0  0  0  0  0  0  0  0  0  0  0
   -0.4320    7.1570  -11.3300 H   0  0  0  0  0  0  0  0  0  0  0  0
   -4.5210    2.0210   -7.7850 N   0  0  0  0  0  2  0  0  0  0  0  0
   -5.4600    2.1270   -8.2190 H   0  0  0  0  0  0  0  0  0  0  0  0
   -4.3760    2.2860   -6.3400 C   0  0  2  0  0  0  0  0  0  0  0  0
   -3.3700    1.9630   -6.0710 H   0  0  0  0  0  0  0  0  0  0  0  0
   -5.3740    1.4700   -5.5200 C   0  0  0  0  0  3  0  0  0  0  0  0
   -6.6090    1.7400   -5.5300 O   0  0  0  0  0  0  0  0  0  0  0  0
   -4.4620    3.8040   -5.9870 C   0  0  2  0  0  0  0  0  0  0  0  0
   -5.4400    4.1780   -6.2900 H   0  0  0  0  0  0  0  0  0  0  0  0
   -3.3750    4.5860   -6.7450 C   0  0  0  0  0  0  0  0  0  0  0  0
   -2.4260    4.4330   -6.2310 H   0  0  0  0  0  0  0  0  0  0  0  0
   -3.3090    4.1820   -7.7550 H   0  0  0  0  0  0  0  0  0  0  0  0
   -4.3050    4.0130   -4.4580 C   0  0  0  0  0  0  0  0  0  0  0  0
   -5.1000    3.4810   -3.9360 H   0  0  0  0  0  0  0  0  0  0  0  0
   -3.3370    3.6280   -4.1370 H   0  0  0  0  0  0  0  0  0  0  0  0
   -4.3670    5.0770   -4.2300 H   0  0  0  0  0  0  0  0  0  0  0  0
   -3.6210    6.0930   -6.8510 C   0  0  0  0  0  0  0  0  0  0  0  0
   -4.5590    6.2710   -7.3760 H   0  0  0  0  0  0  0  0  0  0  0  0
   -3.6760    6.5220   -5.8510 H   0  0  0  0  0  0  0  0  0  0  0  0
   -2.8020    6.5560   -7.4010 H   0  0  0  0  0  0  0  0  0  0  0  0
   -7.1030    4.9550  -11.2140 N   0  0  0  0  0  2  0  0  0  0  0  0
   -6.1220    4.6450  -11.0650 H   0  0  0  0  0  0  0  0  0  0  0  0
   -7.3690    6.3930  -11.2260 C   0  0  2  0  0  0  0  0  0  0  0  0
   -8.4260    6.5500  -11.4390 H   0  0  0  0  0  0  0  0  0  0  0  0
   -6.5510    7.1110  -12.3230 C   0  0  0  0  0  3  0  0  0  0  0  0
   -5.3670    6.8340  -12.4820 O   0  0  0  0  0  0  0  0  0  0  0  0
   -6.9990    6.9690   -9.8590 C   0  0  0  0  0  0  0  0  0  0  0  0
   -5.9460    6.7590   -9.6690 H   0  0  0  0  0  0  0  0  0  0  0  0
   -7.1550    8.0480   -9.8840 H   0  0  0  0  0  0  0  0  0  0  0  0
   -7.8100    6.3970   -8.7320 C   0  0  0  0  0  0  0  0  0  0  0  0
   -9.1120    6.7880   -8.4820 N   0  0  0  0  0  0  0  0  0  0  0  0
   -7.5200    5.4300   -7.8250 C   0  0  0  0  0  0  0  0  0  0  0  0
   -6.5730    4.9000   -7.7210 H   0  0  0  0  0  0  0  0  0  0  0  0
   -9.5840    6.0790   -7.4730 C   0  0  0  0  0  0  0  0  0  0  0  0
  -10.5840    6.1660   -7.0470 H   0  0  0  0  0  0  0  0  0  0  0  0
   -8.6430    5.2470   -7.0660 N   0  0  0  0  0  0  0  0  0  0  0  0
   -4.3430    9.9870  -13.8600 N   0  0  0  0  0  2  0  0  0  0  0  0
   -3.9430    9.2670  -14.4950 H   0  0  0  0  0  0  0  0  0  0  0  0
   -3.4660   11.0950  -13.4060 C   0  0  2  0  0  0  0  0  0  0  0  0
   -3.9980   11.6020  -12.6010 H   0  0  0  0  0  0  0  0  0  0  0  0
   -3.1980   12.0700  -14.5610 C   0  0  0  0  0  3  0  0  0  0  0  0
   -2.6940   11.6660  -15.6100 O   0  0  0  0  0  0  0  0  0  0  0  0
   -2.1230   10.5980  -12.8370 C   0  0  0  0  0  0  0  0  0  0  0  0
   -1.6160   10.0380  -13.6230 H   0  0  0  0  0  0  0  0  0  0  0  0
   -1.2160   11.7770  -12.4230 C   0  0  0  0  0  0  0  0  0  0  0  0
   -1.0140   12.4010  -13.2930 H   0  0  0  0  0  0  0  0  0  0  0  0
   -1.7190   12.3690  -11.6580 H   0  0  0  0  0  0  0  0  0  0  0  0
   -0.2780   11.3900  -12.0260 H   0  0  0  0  0  0  0  0  0  0  0  0
   -2.3600    9.6900  -11.6480 C   0  0  0  0  0  0  0  0  0  0  0  0
   -2.8940   10.2400  -10.8730 H   0  0  0  0  0  0  0  0  0  0  0  0
   -2.9540    8.8310  -11.9610 H   0  0  0  0  0  0  0  0  0  0  0  0
   -1.4020    9.3470  -11.2570 H   0  0  0  0  0  0  0  0  0  0  0  0
   10.6540   11.3050   -5.5760 N   0  0  0  0  0  2  0  0  0  0  0  0
   10.3920   12.2850   -5.8030 H   0  0  0  0  0  0  0  0  0  0  0  0
   10.0940   10.6720   -4.3490 C   0  0  2  0  0  0  0  0  0  0  0  0
   10.8680    9.9920   -3.9930 H   0  0  0  0  0  0  0  0  0  0  0  0
    8.8430    9.8410   -4.6350 C   0  0  0  0  0  0  0  0  0  0  0  0
    8.3760    9.1070   -3.7350 O   0  0  0  0  0  0  0  0  0  0  0  0
    9.8210   11.6790   -3.2540 C   0  0  0  0  0  0  0  0  0  0  0  0
   10.7510   12.1790   -2.9810 H   0  0  0  0  0  0  0  0  0  0  0  0
    9.1020   12.4160   -3.6110 H   0  0  0  0  0  0  0  0  0  0  0  0
    9.4140   11.1650   -2.3830 H   0  0  0  0  0  0  0  0  0  0  0  0
    8.3280    9.9240   -5.8760 N   0  0  0  0  0  0  0  0  0  0  0  0
    8.8050   10.5390   -6.5650 H   0  0  0  0  0  0  0  0  0  0  0  0
    7.1420    9.2010   -6.3060 C   0  0  2  0  0  0  0  0  0  0  0  0
    6.4000    9.3360   -5.5190 H   0  0  0  0  0  0  0  0  0  0  0  0
    7.4250    7.7530   -6.4980 C   0  0  0  0  0  0  0  0  0  0  0  0
    8.5700    7.2700   -6.4620 O   0  0  0  0  0  0  0  0  0  0  0  0
    6.6180    9.7450   -7.6390 C   0  0  0  0  0  0  0  0  0  0  0  0
    5.6190    9.3460   -7.8150 H   0  0  0  0  0  0  0  0  0  0  0  0
    7.2840    9.4210   -8.4390 H   0  0  0  0  0  0  0  0  0  0  0  0
    6.5530   11.1910   -7.6390 O   0  0  0  0  0  0  0  0  0  0  0  0
    6.2110   11.5050   -8.5140 H   0  0  0  0  0  0  0  0  0  0  0  0
    6.3550    7.0580   -6.8100 N   0  0  0  0  0  0  0  0  0  0  0  0
    5.4610    7.5640   -6.9720 H   0  0  0  0  0  0  0  0  0  0  0  0
    6.3700    5.6400   -6.9350 C   0  0  2  0  0  0  0  0  0  0  0  0
    7.1620    5.1570   -6.3640 H   0  0  0  0  0  0  0  0  0  0  0  0
    6.5790    5.3360   -8.4090 C   0  0  0  0  0  3  0  0  0  0  0  0
    6.0940    6.0730   -9.2600 O   0  0  0  0  0  0  0  0  0  0  0  0
    5.0220    5.1190   -6.4090 C   0  0  0  0  0  0  0  0  0  0  0  0
    4.2350    5.7010   -6.8870 H   0  0  0  0  0  0  0  0  0  0  0  0
    4.9330    4.0750   -6.7090 H   0  0  0  0  0  0  0  0  0  0  0  0
    4.7900    5.1880   -4.8740 C   0  0  0  0  0  0  0  0  0  0  0  0
    5.0100    6.2120   -4.5710 H   0  0  0  0  0  0  0  0  0  0  0  0
    3.3110    4.7880   -4.5700 C   0  0  0  0  0  0  0  0  0  0  0  0
    2.6380    5.4790   -5.0770 H   0  0  0  0  0  0  0  0  0  0  0  0
    3.1300    3.7740   -4.9260 H   0  0  0  0  0  0  0  0  0  0  0  0
    3.1370    4.8330   -3.4950 H   0  0  0  0  0  0  0  0  0  0  0  0
    5.7270    4.2640   -4.0560 C   0  0  0  0  0  0  0  0  0  0  0  0
    5.5710    3.2290   -4.3610 H   0  0  0  0  0  0  0  0  0  0  0  0
    6.7640    4.5460   -4.2400 H   0  0  0  0  0  0  0  0  0  0  0  0
    5.5030    4.3690   -2.9940 H   0  0  0  0  0  0  0  0  0  0  0  0
    5.3050    3.2970  -10.3550 N   0  0  0  0  0  2  0  0  0  0  0  0
    5.3190    3.2100   -9.3190 H   0  0  0  0  0  0  0  0  0  0  0  0
    4.1120    2.9140  -11.0930 C   0  0  2  0  0  0  0  0  0  0  0  0
    4.3770    2.2010  -11.8730 H   0  0  0  0  0  0  0  0  0  0  0  0
    3.5250    4.1710  -11.7290 C   0  0  0  0  0  0  0  0  0  0  0  0
    2.8290    4.0740  -12.7370 O   0  0  0  0  0  0  0  0  0  0  0  0
    3.0890    2.1810  -10.2000 C   0  0  0  0  0  0  0  0  0  0  0  0
    2.2390    1.8870  -10.8160 H   0  0  0  0  0  0  0  0  0  0  0  0
    3.5630    1.2900   -9.7890 H   0  0  0  0  0  0  0  0  0  0  0  0
    2.5850    3.0260   -9.0590 C   0  0  0  0  0  0  0  0  0  0  0  0
    3.2850    2.9380   -8.2280 H   0  0  0  0  0  0  0  0  0  0  0  0
    2.5440    4.0640   -9.3890 H   0  0  0  0  0  0  0  0  0  0  0  0
    1.2080    2.6210   -8.5730 C   0  0  0  0  0  0  0  0  0  0  0  0
    0.7530    3.4710   -8.0650 H   0  0  0  0  0  0  0  0  0  0  0  0
    0.6000    2.3470   -9.4350 H   0  0  0  0  0  0  0  0  0  0  0  0
    1.2480    1.4500   -7.6160 C   0  0  0  0  0  0  0  0  0  0  0  0
    2.1300    1.5540   -6.9850 H   0  0  0  0  0  0  0  0  0  0  0  0
    1.3270    0.5330   -8.2000 H   0  0  0  0  0  0  0  0  0  0  0  0
    0.0220    1.3380   -6.7120 N   0  0  0  0  0  4  0  0  0  0  0  0
   -0.0630    2.2000   -6.1370 H   0  0  0  0  0  0  0  0  0  0  0  0
   -0.8300    1.2250   -7.2980 H   0  0  0  0  0  0  0  0  0  0  0  0
    0.1270    0.5130   -6.0880 H   0  0  0  0  0  0  0  0  0  0  0  0
    3.8150    5.3320  -11.1570 N   0  0  0  0  0  0  0  0  0  0  0  0
    4.3440    5.3460  -10.2620 H   0  0  0  0  0  0  0  0  0  0  0  0
    3.4060    6.5700  -11.7600 C   0  0  2  0  0  0  0  0  0  0  0  0
    2.6010    6.3500  -12.4610 H   0  0  0  0  0  0  0  0  0  0  0  0
    4.5830    7.2000  -12.5340 C   0  0  0  0  0  3  0  0  0  0  0  0
    4.3900    7.6850  -13.6440 O   0  0  0  0  0  0  0  0  0  0  0  0
    2.8330    7.5740  -10.6990 C   0  0  0  0  0  0  0  0  0  0  0  0
    1.7520    7.4410  -10.6510 H   0  0  0  0  0  0  0  0  0  0  0  0
    3.2710    7.3350   -9.7300 H   0  0  0  0  0  0  0  0  0  0  0  0
    3.1220    9.0400  -11.0060 C   0  0  0  0  0  0  0  0  0  0  0  0
    2.4190    9.6990  -11.9770 C   0  0  0  0  0  0  0  0  0  0  0  0
    1.6340    9.1740  -12.5200 H   0  0  0  0  0  0  0  0  0  0  0  0
    4.1580    9.7400  -10.3510 C   0  0  0  0  0  0  0  0  0  0  0  0
    4.7460    9.2230   -9.5930 H   0  0  0  0  0  0  0  0  0  0  0  0
    2.7000   11.0760  -12.2930 C   0  0  0  0  0  0  0  0  0  0  0  0
    2.1060   11.5870  -13.0510 H   0  0  0  0  0  0  0  0  0  0  0  0
    4.4620   11.1120  -10.6520 C   0  0  0  0  0  0  0  0  0  0  0  0
    5.2550   11.6380  -10.1200 H   0  0  0  0  0  0  0  0  0  0  0  0
    3.7150   11.7570  -11.6450 C   0  0  0  0  0  0  0  0  0  0  0  0
    3.9630   13.0750  -12.0290 O   0  0  0  0  0  0  0  0  0  0  0  0
    3.3260   13.3360  -12.7410 H   0  0  0  0  0  0  0  0  0  0  0  0
   10.9780    6.3050   -4.9480 N   0  0  0  0  0  2  0  0  0  0  0  0
   10.1880    5.9880   -5.5450 H   0  0  0  0  0  0  0  0  0  0  0  0
   10.7200    6.5580   -3.5270 C   0  0  2  0  0  0  0  0  0  0  0  0
   10.9690    7.6020   -3.3390 H   0  0  0  0  0  0  0  0  0  0  0  0
   11.6250    5.7190   -2.6400 C   0  0  0  0  0  3  0  0  0  0  0  0
   12.2670    6.2920   -1.7970 O   0  0  0  0  0  0  0  0  0  0  0  0
    9.2040    6.4100   -3.1540 C   0  0  0  0  0  0  0  0  0  0  0  0
    8.6640    7.2090   -3.6620 H   0  0  0  0  0  0  0  0  0  0  0  0
    8.8680    5.4460   -3.5360 H   0  0  0  0  0  0  0  0  0  0  0  0
    8.8060    6.4750   -1.6050 C   0  0  0  0  0  0  0  0  0  0  0  0
    9.0730    5.5270   -1.1380 H   0  0  0  0  0  0  0  0  0  0  0  0
    9.3690    7.2810   -1.1350 H   0  0  0  0  0  0  0  0  0  0  0  0
    7.2710    6.7340   -1.3710 C   0  0  0  0  0  0  0  0  0  0  0  0
    6.9860    6.4380   -0.3620 H   0  0  0  0  0  0  0  0  0  0  0  0
    6.6770    6.1740   -2.0940 H   0  0  0  0  0  0  0  0  0  0  0  0
    7.0740    8.1750   -1.5550 N   0  0  0  0  0  0  0  0  0  0  0  0
    7.9010    8.7810   -1.3810 H   0  0  0  0  0  0  0  0  0  0  0  0
    5.9530    8.7950   -1.9200 C   0  0  0  0  0  0  0  0  0  0  0  0
    4.8300    8.1290   -2.1550 N   0  0  0  0  0  4  0  0  0  0  0  0
    4.8090    7.0940   -2.0560 H   0  0  0  0  0  0  0  0  0  0  0  0
    3.9710    8.6420   -2.4390 H   0  0  0  0  0  0  0  0  0  0  0  0
    5.9750   10.1110   -2.0680 N   0  0  0  0  0  0  0  0  0  0  0  0
    6.8550   10.6390   -1.9000 H   0  0  0  0  0  0  0  0  0  0  0  0
    5.1120   10.6170   -2.3520 H   0  0  0  0  0  0  0  0  0  0  0  0
   11.6800   13.6970    2.1500 N   0  0  0  0  0  2  0  0  0  0  0  0
   11.0060   14.3750    1.7400 H   0  0  0  0  0  0  0  0  0  0  0  0
   12.3750   12.7460    1.2760 C   0  0  2  0  0  0  0  0  0  0  0  0
   12.5890   11.8420    1.8460 H   0  0  0  0  0  0  0  0  0  0  0  0
   13.6730   13.4000    0.7880 C   0  0  0  0  0  3  0  0  0  0  0  0
   13.6690   14.3550    0.0170 O   0  0  0  0  0  0  0  0  0  0  0  0
   11.5200   12.3200    0.0890 C   0  0  0  0  0  0  0  0  0  0  0  0
   11.3570   13.1990   -0.5350 H   0  0  0  0  0  0  0  0  0  0  0  0
   12.0810   11.5750   -0.4740 H   0  0  0  0  0  0  0  0  0  0  0  0
   10.1640   11.7270    0.4160 C   0  0  0  0  0  0  0  0  0  0  0  0
   10.0310   10.3500    0.7370 C   0  0  0  0  0  0  0  0  0  0  0  0
   10.9170    9.7150    0.7680 H   0  0  0  0  0  0  0  0  0  0  0  0
    9.0060   12.5450    0.3790 C   0  0  0  0  0  0  0  0  0  0  0  0
    9.1020   13.6000    0.1210 H   0  0  0  0  0  0  0  0  0  0  0  0
    8.7740    9.8000    1.0140 C   0  0  0  0  0  0  0  0  0  0  0  0
    8.6750    8.7420    1.2580 H   0  0  0  0  0  0  0  0  0  0  0  0
    7.7410   12.0170    0.6690 C   0  0  0  0  0  0  0  0  0  0  0  0
    6.8570   12.6550    0.6610 H   0  0  0  0  0  0  0  0  0  0  0  0
    7.6340   10.6360    0.9730 C   0  0  0  0  0  0  0  0  0  0  0  0
    6.3730   10.1120    1.2340 O   0  0  0  0  0  0  0  0  0  0  0  0
    6.4530    9.1450    1.4290 H   0  0  0  0  0  0  0  0  0  0  0  0
    6.8140   13.4770   -8.2220 H   0  0  0  0  0  0  0  0  0  0  0  0
   -8.7350    4.5970   -6.3320 H   0  0  0  0  0  0  0  0  0  0  0  0
  1  2  1  0
  1  3  1  0
  3  4  1  6
  3  5  1  0
  3  7  1  0
  5  6  2  0
  7  8  1  0
  7  9  1  0
  7 10  1  0
 10 11  2  0
 10 12  1  0
 12250  1  0
 13 14  1  0
 13 15  1  0
 15 16  1  6
 15 17  1  0
 15 19  1  0
 17 18  2  0
 17 24  1  0
 19 20  1  0
 19 21  1  0
 19 22  1  0
 22 23  1  0
 24 25  1  0
 24 26  1  0
 26 27  1  1
 26 28  1  0
 26 30  1  0
 28 29  2  0
 28 35  1  0
 30 31  1  0
 30 32  1  0
 30 33  1  0
 33 34  1  0
 35 36  1  0
 35 37  1  0
 37 38  1  6
 37 39  1  0
 37 41  1  0
 39 40  2  0
 41 42  1  0
 41 43  1  0
 41 44  1  0
 44 45  2  0
 44 47  1  0
 45 46  1  0
 45 49  1  0
 47 48  1  0
 47 51  2  0
 49 50  1  0
 49 53  2  0
 51 52  1  0
 51 53  1  0
 53 54  1  0
 55 56  1  0
 55 57  1  0
 57 58  1  6
 57 59  1  0
 57 61  1  0
 59 60  2  0
 61 62  1  0
 61 63  1  0
 61 67  1  0
 63 64  1  0
 63 65  1  0
 63 66  1  0
 67 68  1  0
 67 69  1  0
 67 70  1  0
 71 72  1  0
 71 73  1  0
 73 74  1  1
 73 75  1  0
 73 77  1  0
 75 76  2  0
 77 78  1  6
 77 79  1  0
 77 82  1  0
 79 80  1  0
 79 81  1  0
 79 86  1  0
 82 83  1  0
 82 84  1  0
 82 85  1  0
 86 87  1  0
 86 88  1  0
 86 89  1  0
 90 91  1  0
 90 92  1  0
 92 93  1  6
 92 94  1  0
 92 96  1  0
 94 95  2  0
 96 97  1  0
 96 98  1  0
 96 99  1  0
 99100  1  0
 99101  2  0
100103  2  0
101102  1  0
101105  1  0
103104  1  0
103105  1  0
105251  1  0
106107  1  0
106108  1  0
108109  1  1
108110  1  0
108112  1  0
110111  2  0
112113  1  0
112114  1  0
112118  1  0
114115  1  0
114116  1  0
114117  1  0
118119  1  0
118120  1  0
118121  1  0
122123  1  0
122124  1  0
124125  1  1
124126  1  0
124128  1  0
126127  2  0
126132  1  0
128129  1  0
128130  1  0
128131  1  0
132133  1  0
132134  1  0
134135  1  1
134136  1  0
134138  1  0
136137  2  0
136143  1  0
138139  1  0
138140  1  0
138141  1  0
141142  1  0
143144  1  0
143145  1  0
145146  1  1
145147  1  0
145149  1  0
147148  2  0
149150  1  0
149151  1  0
149152  1  0
152153  1  0
152154  1  0
152158  1  0
154155  1  0
154156  1  0
154157  1  0
158159  1  0
158160  1  0
158161  1  0
162163  1  0
162164  1  0
164165  1  6
164166  1  0
164168  1  0
166167  2  0
166184  1  0
168169  1  0
168170  1  0
168171  1  0
171172  1  0
171173  1  0
171174  1  0
174175  1  0
174176  1  0
174177  1  0
177178  1  0
177179  1  0
177180  1  0
180181  1  0
180182  1  0
180183  1  0
184185  1  0
184186  1  0
186187  1  6
186188  1  0
186190  1  0
188189  2  0
190191  1  0
190192  1  0
190193  1  0
193194  2  0
193196  1  0
194195  1  0
194198  1  0
196197  1  0
196200  2  0
198199  1  0
198202  2  0
200201  1  0
200202  1  0
202203  1  0
203204  1  0
205206  1  0
205207  1  0
207208  1  6
207209  1  0
207211  1  0
209210  2  0
211212  1  0
211213  1  0
211214  1  0
214215  1  0
214216  1  0
214217  1  0
217218  1  0
217219  1  0
217220  1  0
220221  1  0
220222  1  0
222223  2  0
222226  1  0
223224  1  0
223225  1  0
226227  1  0
226228  1  0
229230  1  0
229231  1  0
231232  1  1
231233  1  0
231235  1  0
233234  2  0
235236  1  0
235237  1  0
235238  1  0
238239  2  0
238241  1  0
239240  1  0
239243  1  0
241242  1  0
241245  2  0
243244  1  0
243247  2  0
245246  1  0
245247  1  0
247248  1  0
248249  1  0
M  RAD  8   1   2   5   2  13   2  39   2  55   2  59   2  71   2  75   2
M  RAD  8  90   2  94   2 106   2 110   2 122   2 147   2 162   2 188   2
M  CHG  2 180   1 223   1
M  RAD  4 205   2 209   2 229   2 233   2
M  END
$$$$

     RDKit          3D

251245  0  0  0  0  0  0  0  0999 V2000
    8.2390   15.7430  -10.2460 N   0  0  0  0  0  2  0  0  0  0  0  0
    8.4060   14.8450   -9.7480 H   0  0  0  0  0  0  0  0  0  0  0  0
    7.1270   16.5820   -9.8330 C   0  0  2  0  0  0  0  0  0  0  0  0
    6.5240   16.7530  -10.7240 H   0  0  0  0  0  0  0  0  0  0  0  0
    7.5010   17.9630   -9.3590 C   0  0  0  0  0  3  0  0  0  0  0  0
    8.3130   18.1090   -8.4540 O   0  0  0  0  0  0  0  0  0  0  0  0
    6.3630   15.8620   -8.7680 C   0  0  0  0  0  0  0  0  0  0  0  0
    7.0440   15.5910   -7.9610 H   0  0  0  0  0  0  0  0  0  0  0  0
    5.5850   16.5200   -8.3800 H   0  0  0  0  0  0  0  0  0  0  0  0
    5.7360   14.6350   -9.3040 C   0  0  0  0  0  0  0  0  0  0  0  0
    4.8520   14.7920  -10.1880 O   0  0  0  0  0  0  0  0  0  0  0  0
    6.1520   13.5130   -8.8840 O   0  0  0  0  0  0  0  0  0  0  0  0
    1.6580   16.8130  -11.9920 N   0  0  0  0  0  2  0  0  0  0  0  0
    2.3630   16.6600  -11.2430 H   0  0  0  0  0  0  0  0  0  0  0  0
    0.5750   15.8710  -12.1280 C   0  0  2  0  0  0  0  0  0  0  0  0
    0.1290   15.9910  -13.1150 H   0  0  0  0  0  0  0  0  0  0  0  0
   -0.5220   16.1130  -11.1130 C   0  0  0  0  0  0  0  0  0  0  0  0
   -0.2990   16.7340  -10.0760 O   0  0  0  0  0  0  0  0  0  0  0  0
    1.1300   14.4960  -11.9520 C   0  0  0  0  0  0  0  0  0  0  0  0
    0.3140   13.7740  -11.9180 H   0  0  0  0  0  0  0  0  0  0  0  0
    1.6970   14.4460  -11.0220 H   0  0  0  0  0  0  0  0  0  0  0  0
    1.9940   14.1960  -13.0610 O   0  0  0  0  0  0  0  0  0  0  0  0
    2.3660   13.2850  -12.9510 H   0  0  0  0  0  0  0  0  0  0  0  0
   -1.7070   15.5990  -11.3820 N   0  0  0  0  0  0  0  0  0  0  0  0
   -1.8300   15.0390  -12.2500 H   0  0  0  0  0  0  0  0  0  0  0  0
   -2.8500   15.7940  -10.4960 C   0  0  2  0  0  0  0  0  0  0  0  0
   -2.4940   15.6940   -9.4710 H   0  0  0  0  0  0  0  0  0  0  0  0
   -3.9360   14.7420  -10.7100 C   0  0  0  0  0  0  0  0  0  0  0  0
   -4.1170   14.2150  -11.8220 O   0  0  0  0  0  0  0  0  0  0  0  0
   -3.4310   17.1680  -10.7260 C   0  0  0  0  0  0  0  0  0  0  0  0
   -3.6970   17.2780  -11.7770 H   0  0  0  0  0  0  0  0  0  0  0  0
   -2.6920   17.9230  -10.4590 H   0  0  0  0  0  0  0  0  0  0  0  0
   -4.5930   17.3400   -9.9250 O   0  0  0  0  0  0  0  0  0  0  0  0
   -4.9690   18.2430  -10.0800 H   0  0  0  0  0  0  0  0  0  0  0  0
   -4.6520   14.4140   -9.6350 N   0  0  0  0  0  0  0  0  0  0  0  0
   -4.3590   14.7920   -8.7110 H   0  0  0  0  0  0  0  0  0  0  0  0
   -5.8320   13.5460   -9.6910 C   0  0  2  0  0  0  0  0  0  0  0  0
   -5.6450   12.7780  -10.4420 H   0  0  0  0  0  0  0  0  0  0  0  0
   -7.0770   14.3290  -10.1220 C   0  0  0  0  0  3  0  0  0  0  0  0
   -8.0250   13.7390  -10.5890 O   0  0  0  0  0  0  0  0  0  0  0  0
   -6.0610   12.8570   -8.3570 C   0  0  0  0  0  0  0  0  0  0  0  0
   -5.9730   13.6020   -7.5670 H   0  0  0  0  0  0  0  0  0  0  0  0
   -7.0700   12.4440   -8.3540 H   0  0  0  0  0  0  0  0  0  0  0  0
   -5.0730   11.7210   -8.0610 C   0  0  0  0  0  0  0  0  0  0  0  0
   -4.0720   11.8810   -7.1020 C   0  0  0  0  0  0  0  0  0  0  0  0
   -3.9860   12.8270   -6.5670 H   0  0  0  0  0  0  0  0  0  0  0  0
   -5.1740   10.4980   -8.7080 C   0  0  0  0  0  0  0  0  0  0  0  0
   -5.9560   10.3530   -9.4530 H   0  0  0  0  0  0  0  0  0  0  0  0
   -3.1820   10.8480   -6.8190 C   0  0  0  0  0  0  0  0  0  0  0  0
   -2.4060   10.9870   -6.0660 H   0  0  0  0  0  0  0  0  0  0  0  0
   -4.2920    9.4420   -8.4250 C   0  0  0  0  0  0  0  0  0  0  0  0
   -4.4060    8.4830   -8.9310 H   0  0  0  0  0  0  0  0  0  0  0  0
   -3.2860    9.6220   -7.5080 C   0  0  0  0  0  0  0  0  0  0  0  0
   -2.5720    8.8220   -7.3140 H   0  0  0  0  0  0  0  0  0  0  0  0
   -3.3140    5.0230  -13.0570 N   0  0  0  0  0  2  0  0  0  0  0  0
   -4.1400    5.6150  -12.8370 H   0  0  0  0  0  0  0  0  0  0  0  0
   -2.5170    4.4610  -11.9940 C   0  0  2  0  0  0  0  0  0  0  0  0
   -1.7250    3.8470  -12.4230 H   0  0  0  0  0  0  0  0  0  0  0  0
   -3.4380    3.6400  -11.1070 C   0  0  0  0  0  3  0  0  0  0  0  0
   -4.4710    4.1900  -10.6370 O   0  0  0  0  0  0  0  0  0  0  0  0
   -1.8540    5.5840  -11.1350 C   0  0  0  0  0  0  0  0  0  0  0  0
   -2.6490    6.2450  -10.7900 H   0  0  0  0  0  0  0  0  0  0  0  0
   -1.1450    4.9970   -9.9330 C   0  0  0  0  0  0  0  0  0  0  0  0
   -1.8650    4.4610   -9.3150 H   0  0  0  0  0  0  0  0  0  0  0  0
   -0.3700    4.3090  -10.2700 H   0  0  0  0  0  0  0  0  0  0  0  0
   -0.6920    5.8000   -9.3520 H   0  0  0  0  0  0  0  0  0  0  0  0
   -0.8790    6.3820  -11.9530 C   0  0  0  0  0  0  0  0  0  0  0  0
   -0.0980    5.7220  -12.3300 H   0  0  0  0  0  0  0  0  0  0  0  0
   -1.4020    6.8440  -12.7900 H   0  0  0  0  0  0  0  0  0  0  0  0
   -0.4320    7.1570  -11.3300 H   0  0  0  0  0  0  0  0  0  0  0  0
   -4.5210    2.0210   -7.7850 N   0  0  0  0  0  2  0  0  0  0  0  0
   -5.4600    2.1270   -8.2190 H   0  0  0  0  0  0  0  0  0  0  0  0
   -4.3760    2.2860   -6.3400 C   0  0  2  0  0  0  0  0  0  0  0  0
   -3.3700    1.9630   -6.0710 H   0  0  0  0  0  0  0  0  0  0  0  0
   -5.3740    1.4700   -5.5200 C   0  0  0  0  0  3  0  0  0  0  0  0
   -6.6090    1.7400   -5.5300 O   0  0  0  0  0  0  0  0  0  0  0  0
   -4.4620    3.8040   -5.9870 C   0  0  2  0  0  0  0  0  0  0  0  0
   -5.4400    4.1780   -6.2900 H   0  0  0  0  0  0  0  0  0  0  0  0
   -3.3750    4.5860   -6.7450 C   0  0  0  0  0  0  0  0  0  0  0  0
   -2.4260    4.4330   -6.2310 H   0  0  0  0  0  0  0  0  0  0  0  0
   -3.3090    4.1820   -7.7550 H   0  0  0  0  0  0  0  0  0  0  0  0
   -4.3050    4.0130   -4.4580 C   0  0  0  0  0  0  0  0  0  0  0  0
   -5.1000    3.4810   -3.9360 H   0  0  0  0  0  0  0  0  0  0  0  0
   -3.3370    3.6280   -4.1370 H   0  0  0  0  0  0  0  0  0  0  0  0
   -4.3670    5.0770   -4.2300 H   0  0  0  0  0  0  0  0  0  0  0  0
   -3.6210    6.0930   -6.8510 C   0  0  0  0  0  0  0  0  0  0  0  0
   -4.5590    6.2710   -7.3760 H   0  0  0  0  0  0  0  0  0  0  0  0
   -3.6760    6.5220   -5.8510 H   0  0  0  0  0  0  0  0  0  0  0  0
   -2.8020    6.5560   -7.4010 H   0  0  0  0  0  0  0  0  0  0  0  0
   -7.1030    4.9550  -11.2140 N   0  0  0  0  0  2  0  0  0  0  0  0
   -6.1220    4.6450  -11.0650 H   0  0  0  0  0  0  0  0  0  0  0  0
   -7.3690    6.3930  -11.2260 C   0  0  2  0  0  0  0  0  0  0  0  0
   -8.4260    6.5500  -11.4390 H   0  0  0  0  0  0  0  0  0  0  0  0
   -6.5510    7.1110  -12.3230 C   0  0  0  0  0  3  0  0  0  0  0  0
   -5.3670    6.8340  -12.4820 O   0  0  0  0  0  0  0  0  0  0  0  0
   -6.9990    6.9690   -9.8590 C   0  0  0  0  0  0  0  0  0  0  0  0
   -5.9460    6.7590   -9.6690 H   0  0  0  0  0  0  0  0  0  0  0  0
   -7.1550    8.0480   -9.8840 H   0  0  0  0  0  0  0  0  0  0  0  0
   -7.8100    6.3970   -8.7320 C   0  0  0  0  0  0  0  0  0  0  0  0
   -9.1120    6.7880   -8.4820 N   0  0  0  0  0  0  0  0  0  0  0  0
   -7.5200    5.4300   -7.8250 C   0  0  0  0  0  0  0  0  0  0  0  0
   -6.5730    4.9000   -7.7210 H   0  0  0  0  0  0  0  0  0  0  0  0
   -9.5840    6.0790   -7.4730 C   0  0  0  0  0  0  0  0  0  0  0  0
  -10.5840    6.1660   -7.0470 H   0  0  0  0  0  0  0  0  0  0  0  0
   -8.6430    5.2470   -7.0660 N   0  0  0  0  0  0  0  0  0  0  0  0
   -4.3430    9.9870  -13.8600 N   0  0  0  0  0  2  0  0  0  0  0  0
   -3.9430    9.2670  -14.4950 H   0  0  0  0  0  0  0  0  0  0  0  0
   -3.4660   11.0950  -13.4060 C   0  0  2  0  0  0  0  0  0  0  0  0
   -3.9980   11.6020  -12.6010 H   0  0  0  0  0  0  0  0  0  0  0  0
   -3.1980   12.0700  -14.5610 C   0  0  0  0  0  3  0  0  0  0  0  0
   -2.6940   11.6660  -15.6100 O   0  0  0  0  0  0  0  0  0  0  0  0
   -2.1230   10.5980  -12.8370 C   0  0  0  0  0  0  0  0  0  0  0  0
   -1.6160   10.0380  -13.6230 H   0  0  0  0  0  0  0  0  0  0  0  0
   -1.2160   11.7770  -12.4230 C   0  0  0  0  0  0  0  0  0  0  0  0
   -1.0140   12.4010  -13.2930 H   0  0  0  0  0  0  0  0  0  0  0  0
   -1.7190   12.3690  -11.6580 H   0  0  0  0  0  0  0  0  0  0  0  0
   -0.2780   11.3900  -12.0260 H   0  0  0  0  0  0  0  0  0  0  0  0
   -2.3600    9.6900  -11.6480 C   0  0  0  0  0  0  0  0  0  0  0  0
   -2.8940   10.2400  -10.8730 H   0  0  0  0  0  0  0  0  0  0  0  0
   -2.9540    8.8310  -11.9610 H   0  0  0  0  0  0  0  0  0  0  0  0
   -1.4020    9.3470  -11.2570 H   0  0  0  0  0  0  0  0  0  0  0  0
   10.6540   11.3050   -5.5760 N   0  0  0  0  0  2  0  0  0  0  0  0
   10.3920   12.2850   -5.8030 H   0  0  0  0  0  0  0  0  0  0  0  0
   10.0940   10.6720   -4.3490 C   0  0  2  0  0  0  0  0  0  0  0  0
   10.8680    9.9920   -3.9930 H   0  0  0  0  0  0  0  0  0  0  0  0
    8.8430    9.8410   -4.6350 C   0  0  0  0  0  0  0  0  0  0  0  0
    8.3760    9.1070   -3.7350 O   0  0  0  0  0  0  0  0  0  0  0  0
    9.8210   11.6790   -3.2540 C   0  0  0  0  0  0  0  0  0  0  0  0
   10.7510   12.1790   -2.9810 H   0  0  0  0  0  0  0  0  0  0  0  0
    9.1020   12.4160   -3.6110 H   0  0  0  0  0  0  0  0  0  0  0  0
    9.4140   11.1650   -2.3830 H   0  0  0  0  0  0  0  0  0  0  0  0
    8.3280    9.9240   -5.8760 N   0  0  0  0  0  0  0  0  0  0  0  0
    8.8050   10.5390   -6.5650 H   0  0  0  0  0  0  0  0  0  0  0  0
    7.1420    9.2010   -6.3060 C   0  0  2  0  0  0  0  0  0  0  0  0
    6.4000    9.3360   -5.5190 H   0  0  0  0  0  0  0  0  0  0  0  0
    7.4250    7.7530   -6.4980 C   0  0  0  0  0  0  0  0  0  0  0  0
    8.5700    7.2700   -6.4620 O   0  0  0  0  0  0  0  0  0  0  0  0
    6.6180    9.7450   -7.6390 C   0  0  0  0  0  0  0  0  0  0  0  0
    5.6190    9.3460   -7.8150 H   0  0  0  0  0  0  0  0  0  0  0  0
    7.2840    9.4210   -8.4390 H   0  0  0  0  0  0  0  0  0  0  0  0
    6.5530   11.1910   -7.6390 O   0  0  0  0  0  0  0  0  0  0  0  0
    6.2110   11.5050   -8.5140 H   0  0  0  0  0  0  0  0  0  0  0  0
    6.3550    7.0580   -6.8100 N   0  0  0  0  0  0  0  0  0  0  0  0
    5.4610    7.5640   -6.9720 H   0  0  0  0  0  0  0  0  0  0  0  0
    6.3700    5.6400   -6.9350 C   0  0  2  0  0  0  0  0  0  0  0  0
    7.1620    5.1570   -6.3640 H   0  0  0  0  0  0  0  0  0  0  0  0
    6.5790    5.3360   -8.4090 C   0  0  0  0  0  3  0  0  0  0  0  0
    6.0940    6.0730   -9.2600 O   0  0  0  0  0  0  0  0  0  0  0  0
    5.0220    5.1190   -6.4090 C   0  0  0  0  0  0  0  0  0  0  0  0
    4.2350    5.7010   -6.8870 H   0  0  0  0  0  0  0  0  0  0  0  0
    4.9330    4.0750   -6.7090 H   0  0  0  0  0  0  0  0  0  0  0  0
    4.7900    5.1880   -4.8740 C   0  0  0  0  0  0  0  0  0  0  0  0
    5.0100    6.2120   -4.5710 H   0  0  0  0  0  0  0  0  0  0  0  0
    3.3110    4.7880   -4.5700 C   0  0  0  0  0  0  0  0  0  0  0  0
    2.6380    5.4790   -5.0770 H   0  0  0  0  0  0  0  0  0  0  0  0
    3.1300    3.7740   -4.9260 H   0  0  0  0  0  0  0  0  0  0  0  0
    3.1370    4.8330   -3.4950 H   0  0  0  0  0  0  0  0  0  0  0  0
    5.7270    4.2640   -4.0560 C   0  0  0  0  0  0  0  0  0  0  0  0
    5.5710    3.2290   -4.3610 H   0  0  0  0  0  0  0  0  0  0  0  0
    6.7640    4.5460   -4.2400 H   0  0  0  0  0  0  0  0  0  0  0  0
    5.5030    4.3690   -2.9940 H   0  0  0  0  0  0  0  0  0  0  0  0
    5.3050    3.2970  -10.3550 N   0  0  0  0  0  2  0  0  0  0  0  0
    5.3190    3.2100   -9.3190 H   0  0  0  0  0  0  0  0  0  0  0  0
    4.1120    2.9140  -11.0930 C   0  0  2  0  0  0  0  0  0  0  0  0
    4.3770    2.2010  -11.8730 H   0  0  0  0  0  0  0  0  0  0  0  0
    3.5250    4.1710  -11.7290 C   0  0  0  0  0  0  0  0  0  0  0  0
    2.8290    4.0740  -12.7370 O   0  0  0  0  0  0  0  0  0  0  0  0
    3.0890    2.1810  -10.2000 C   0  0  0  0  0  0  0  0  0  0  0  0
    2.2390    1.8870  -10.8160 H   0  0  0  0  0  0  0  0  0  0  0  0
    3.5630    1.2900   -9.7890 H   0  0  0  0  0  0  0  0  0  0  0  0
    2.5850    3.0260   -9.0590 C   0  0  0  0  0  0  0  0  0  0  0  0
    3.2850    2.9380   -8.2280 H   0  0  0  0  0  0  0  0  0  0  0  0
    2.5440    4.0640   -9.3890 H   0  0  0  0  0  0  0  0  0  0  0  0
    1.2080    2.6210   -8.5730 C   0  0  0  0  0  0  0  0  0  0  0  0
    0.7530    3.4710   -8.0650 H   0  0  0  0  0  0  0  0  0  0  0  0
    0.6000    2.3470   -9.4350 H   0  0  0  0  0  0  0  0  0  0  0  0
    1.2480    1.4500   -7.6160 C   0  0  0  0  0  0  0  0  0  0  0  0
    2.1300    1.5540   -6.9850 H   0  0  0  0  0  0  0  0  0  0  0  0
    1.3270    0.5330   -8.2000 H   0  0  0  0  0  0  0  0  0  0  0  0
    0.0220    1.3380   -6.7120 N   0  0  0  0  0  4  0  0  0  0  0  0
   -0.0630    2.2000   -6.1370 H   0  0  0  0  0  0  0  0  0  0  0  0
   -0.8300    1.2250   -7.2980 H   0  0  0  0  0  0  0  0  0  0  0  0
    0.1270    0.5130   -6.0880 H   0  0  0  0  0  0  0  0  0  0  0  0
    3.8150    5.3320  -11.1570 N   0  0  0  0  0  0  0  0  0  0  0  0
    4.3440    5.3460  -10.2620 H   0  0  0  0  0  0  0  0  0  0  0  0
    3.4060    6.5700  -11.7600 C   0  0  2  0  0  0  0  0  0  0  0  0
    2.6010    6.3500  -12.4610 H   0  0  0  0  0  0  0  0  0  0  0  0
    4.5830    7.2000  -12.5340 C   0  0  0  0  0  3  0  0  0  0  0  0
    4.3900    7.6850  -13.6440 O   0  0  0  0  0  0  0  0  0  0  0  0
    2.8330    7.5740  -10.6990 C   0  0  0  0  0  0  0  0  0  0  0  0
    1.7520    7.4410  -10.6510 H   0  0  0  0  0  0  0  0  0  0  0  0
    3.2710    7.3350   -9.7300 H   0  0  0  0  0  0  0  0  0  0  0  0
    3.1220    9.0400  -11.0060 C   0  0  0  0  0  0  0  0  0  0  0  0
    2.4190    9.6990  -11.9770 C   0  0  0  0  0  0  0  0  0  0  0  0
    1.6340    9.1740  -12.5200 H   0  0  0  0  0  0  0  0  0  0  0  0
    4.1580    9.7400  -10.3510 C   0  0  0  0  0  0  0  0  0  0  0  0
    4.7460    9.2230   -9.5930 H   0  0  0  0  0  0  0  0  0  0  0  0
    2.7000   11.0760  -12.2930 C   0  0  0  0  0  0  0  0  0  0  0  0
    2.1060   11.5870  -13.0510 H   0  0  0  0  0  0  0  0  0  0  0  0
    4.4620   11.1120  -10.6520 C   0  0  0  0  0  0  0  0  0  0  0  0
    5.2550   11.6380  -10.1200 H   0  0  0  0  0  0  0  0  0  0  0  0
    3.7150   11.7570  -11.6450 C   0  0  0  0  0  0  0  0  0  0  0  0
    3.9630   13.0750  -12.0290 O   0  0  0  0  0  0  0  0  0  0  0  0
    3.3260   13.3360  -12.7410 H   0  0  0  0  0  0  0  0  0  0  0  0
   10.9780    6.3050   -4.9480 N   0  0  0  0  0  2  0  0  0  0  0  0
   10.1880    5.9880   -5.5450 H   0  0  0  0  0  0  0  0  0  0  0  0
   10.7200    6.5580   -3.5270 C   0  0  2  0  0  0  0  0  0  0  0  0
   10.9690    7.6020   -3.3390 H   0  0  0  0  0  0  0  0  0  0  0  0
   11.6250    5.7190   -2.6400 C   0  0  0  0  0  3  0  0  0  0  0  0
   12.2670    6.2920   -1.7970 O   0  0  0  0  0  0  0  0  0  0  0  0
    9.2040    6.4100   -3.1540 C   0  0  0  0  0  0  0  0  0  0  0  0
    8.6640    7.2090   -3.6620 H   0  0  0  0  0  0  0  0  0  0  0  0
    8.8680    5.4460   -3.5360 H   0  0  0  0  0  0  0  0  0  0  0  0
    8.8060    6.4750   -1.6050 C   0  0  0  0  0  0  0  0  0  0  0  0
    9.0730    5.5270   -1.1380 H   0  0  0  0  0  0  0  0  0  0  0  0
    9.3690    7.2810   -1.1350 H   0  0  0  0  0  0  0  0  0  0  0  0
    7.2710    6.7340   -1.3710 C   0  0  0  0  0  0  0  0  0  0  0  0
    6.9860    6.4380   -0.3620 H   0  0  0  0  0  0  0  0  0  0  0  0
    6.6770    6.1740   -2.0940 H   0  0  0  0  0  0  0  0  0  0  0  0
    7.0740    8.1750   -1.5550 N   0  0  0  0  0  0  0  0  0  0  0  0
    7.9010    8.7810   -1.3810 H   0  0  0  0  0  0  0  0  0  0  0  0
    5.9530    8.7950   -1.9200 C   0  0  0  0  0  0  0  0  0  0  0  0
    4.8300    8.1290   -2.1550 N   0  0  0  0  0  4  0  0  0  0  0  0
    4.8090    7.0940   -2.0560 H   0  0  0  0  0  0  0  0  0  0  0  0
    3.9710    8.6420   -2.4390 H   0  0  0  0  0  0  0  0  0  0  0  0
    5.9750   10.1110   -2.0680 N   0  0  0  0  0  0  0  0  0  0  0  0
    6.8550   10.6390   -1.9000 H   0  0  0  0  0  0  0  0  0  0  0  0
    5.1120   10.6170   -2.3520 H   0  0  0  0  0  0  0  0  0  0  0  0
   11.6800   13.6970    2.1500 N   0  0  0  0  0  2  0  0  0  0  0  0
   11.0060   14.3750    1.7400 H   0  0  0  0  0  0  0  0  0  0  0  0
   12.3750   12.7460    1.2760 C   0  0  2  0  0  0  0  0  0  0  0  0
   12.5890   11.8420    1.8460 H   0  0  0  0  0  0  0  0  0  0  0  0
   13.6730   13.4000    0.7880 C   0  0  0  0  0  3  0  0  0  0  0  0
   13.6690   14.3550    0.0170 O   0  0  0  0  0  0  0  0  0  0  0  0
   11.5200   12.3200    0.0890 C   0  0  0  0  0  0  0  0  0  0  0  0
   11.3570   13.1990   -0.5350 H   0  0  0  0  0  0  0  0  0  0  0  0
   12.0810   11.5750   -0.4740 H   0  0  0  0  0  0  0  0  0  0  0  0
   10.1640   11.7270    0.4160 C   0  0  0  0  0  0  0  0  0  0  0  0
   10.0310   10.3500    0.7370 C   0  0  0  0  0  0  0  0  0  0  0  0
   10.9170    9.7150    0.7680 H   0  0  0  0  0  0  0  0  0  0  0  0
    9.0060   12.5450    0.3790 C   0  0  0  0  0  0  0  0  0  0  0  0
    9.1020   13.6000    0.1210 H   0  0  0  0  0  0  0  0  0  0  0  0
    8.7740    9.8000    1.0140 C   0  0  0  0  0  0  0  0  0  0  0  0
    8.6750    8.7420    1.2580 H   0  0  0  0  0  0  0  0  0  0  0  0
    7.7410   12.0170    0.6690 C   0  0  0  0  0  0  0  0  0  0  0  0
    6.8570   12.6550    0.6610 H   0  0  0  0  0  0  0  0  0  0  0  0
    7.6340   10.6360    0.9730 C   0  0  0  0  0  0  0  0  0  0  0  0
    6.3730   10.1120    1.2340 O   0  0  0  0  0  0  0  0  0  0  0  0
    6.4530    9.1450    1.4290 H   0  0  0  0  0  0  0  0  0  0  0  0
    6.8140   13.4770   -8.2220 H   0  0  0  0  0  0  0  0  0  0  0  0
   -8.7350    4.5970   -6.3320 H   0  0  0  0  0  0  0  0  0  0  0  0
  1  2  1  0
  1  3  1  0
  3  4  1  6
  3  5  1  0
  3  7  1  0
  5  6  2  0
  7  8  1  0
  7  9  1  0
  7 10  1  0
 10 11  2  0
 10 12  1  0
 12250  1  0
 13 14  1  0
 13 15  1  0
 15 16  1  6
 15 17  1  0
 15 19  1  0
 17 18  2  0
 17 24  1  0
 19 20  1  0
 19 21  1  0
 19 22  1  0
 22 23  1  0
 24 25  1  0
 24 26  1  0
 26 27  1  1
 26 28  1  0
 26 30  1  0
 28 29  2  0
 28 35  1  0
 30 31  1  0
 30 32  1  0
 30 33  1  0
 33 34  1  0
 35 36  1  0
 35 37  1  0
 37 38  1  6
 37 39  1  0
 37 41  1  0
 39 40  2  0
 41 42  1  0
 41 43  1  0
 41 44  1  0
 44 45  2  0
 44 47  1  0
 45 46  1  0
 45 49  1  0
 47 48  1  0
 47 51  2  0
 49 50  1  0
 49 53  2  0
 51 52  1  0
 51 53  1  0
 53 54  1  0
 55 56  1  0
 55 57  1  0
 57 58  1  6
 57 59  1  0
 57 61  1  0
 59 60  2  0
 61 62  1  0
 61 63  1  0
 61 67  1  0
 63 64  1  0
 63 65  1  0
 63 66  1  0
 67 68  1  0
 67 69  1  0
 67 70  1  0
 71 72  1  0
 71 73  1  0
 73 74  1  1
 73 75  1  0
 73 77  1  0
 75 76  2  0
 77 78  1  6
 77 79  1  0
 77 82  1  0
 79 80  1  0
 79 81  1  0
 79 86  1  0
 82 83  1  0
 82 84  1  0
 82 85  1  0
 86 87  1  0
 86 88  1  0
 86 89  1  0
 90 91  1  0
 90 92  1  0
 92 93  1  6
 92 94  1  0
 92 96  1  0
 94 95  2  0
 96 97  1  0
 96 98  1  0
 96 99  1  0
 99100  1  0
 99101  2  0
100103  2  0
101102  1  0
101105  1  0
103104  1  0
103105  1  0
105251  1  0
106107  1  0
106108  1  0
108109  1  1
108110  1  0
108112  1  0
110111  2  0
112113  1  0
112114  1  0
112118  1  0
114115  1  0
114116  1  0
114117  1  0
118119  1  0
118120  1  0
118121  1  0
122123  1  0
122124  1  0
124125  1  1
124126  1  0
124128  1  0
126127  2  0
126132  1  0
128129  1  0
128130  1  0
128131  1  0
132133  1  0
132134  1  0
134135  1  1
134136  1  0
134138  1  0
136137  2  0
136143  1  0
138139  1  0
138140  1  0
138141  1  0
141142  1  0
143144  1  0
143145  1  0
145146  1  1
145147  1  0
145149  1  0
147148  2  0
149150  1  0
149151  1  0
149152  1  0
152153  1  0
152154  1  0
152158  1  0
154155  1  0
154156  1  0
154157  1  0
158159  1  0
158160  1  0
158161  1  0
162163  1  0
162164  1  0
164165  1  6
164166  1  0
164168  1  0
166167  2  0
166184  1  0
168169  1  0
168170  1  0
168171  1  0
171172  1  0
171173  1  0
171174  1  0
174175  1  0
174176  1  0
174177  1  0
177178  1  0
177179  1  0
177180  1  0
180181  1  0
180182  1  0
180183  1  0
184185  1  0
184186  1  0
186187  1  6
186188  1  0
186190  1  0
188189  2  0
190191  1  0
190192  1  0
190193  1  0
193194  2  0
193196  1  0
194195  1  0
194198  1  0
196197  1  0
196200  2  0
198199  1  0
198202  2  0
200201  1  0
200202  1  0
202203  1  0
203204  1  0
205206  1  0
205207  1  0
207208  1  6
207209  1  0
207211  1  0
209210  2  0
211212  1  0
211213  1  0
211214  1  0
214215  1  0
214216  1  0
214217  1  0
217218  1  0
217219  1  0
217220  1  0
220221  1  0
220222  1  0
222223  2  0
222226  1  0
223224  1  0
223225  1  0
226227  1  0
226228  1  0
229230  1  0
229231  1  0
231232  1  1
231233  1  0
231235  1  0
233234  2  0
235236  1  0
235237  1  0
235238  1  0
238239  2  0
238241  1  0
239240  1  0
239243  1  0
241242  1  0
241245  2  0
243244  1  0
243247  2  0
245246  1  0
245247  1  0
247248  1  0
248249  1  0
M  RAD  8   1   2   5   2  13   2  39   2  55   2  59   2  71   2  75   2
M  RAD  8  90   2  94   2 106   2 110   2 122   2 147   2 162   2 188   2
M  CHG  2 180   1 223   1
M  RAD  4 205   2 209   2 229   2 233   2
M  END
$$$$

     RDKit          3D

251245  0  0  0  0  0  0  0  0999 V2000
    8.2390   15.7430  -10.2460 N   0  0  0  0  0  2  0  0  0  0  0  0
    8.4060   14.8450   -9.7480 H   0  0  0  0  0  0  0  0  0  0  0  0
    7.1270   16.5820   -9.8330 C   0  0  2  0  0  0  0  0  0  0  0  0
    6.5240   16.7530  -10.7240 H   0  0  0  0  0  0  0  0  0  0  0  0
    7.5010   17.9630   -9.3590 C   0  0  0  0  0  3  0  0  0  0  0  0
    8.3130   18.1090   -8.4540 O   0  0  0  0  0  0  0  0  0  0  0  0
    6.3630   15.8620   -8.7680 C   0  0  0  0  0  0  0  0  0  0  0  0
    7.0440   15.5910   -7.9610 H   0  0  0  0  0  0  0  0  0  0  0  0
    5.5850   16.5200   -8.3800 H   0  0  0  0  0  0  0  0  0  0  0  0
    5.7360   14.6350   -9.3040 C   0  0  0  0  0  0  0  0  0  0  0  0
    4.8520   14.7920  -10.1880 O   0  0  0  0  0  0  0  0  0  0  0  0
    6.1520   13.5130   -8.8840 O   0  0  0  0  0  0  0  0  0  0  0  0
    1.6580   16.8130  -11.9920 N   0  0  0  0  0  2  0  0  0  0  0  0
    2.3630   16.6600  -11.2430 H   0  0  0  0  0  0  0  0  0  0  0  0
    0.5750   15.8710  -12.1280 C   0  0  2  0  0  0  0  0  0  0  0  0
    0.1290   15.9910  -13.1150 H   0  0  0  0  0  0  0  0  0  0  0  0
   -0.5220   16.1130  -11.1130 C   0  0  0  0  0  0  0  0  0  0  0  0
   -0.2990   16.7340  -10.0760 O   0  0  0  0  0  0  0  0  0  0  0  0
    1.1300   14.4960  -11.9520 C   0  0  0  0  0  0  0  0  0  0  0  0
    0.3140   13.7740  -11.9180 H   0  0  0  0  0  0  0  0  0  0  0  0
    1.6970   14.4460  -11.0220 H   0  0  0  0  0  0  0  0  0  0  0  0
    1.9940   14.1960  -13.0610 O   0  0  0  0  0  0  0  0  0  0  0  0
    2.3660   13.2850  -12.9510 H   0  0  0  0  0  0  0  0  0  0  0  0
   -1.7070   15.5990  -11.3820 N   0  0  0  0  0  0  0  0  0  0  0  0
   -1.8300   15.0390  -12.2500 H   0  0  0  0  0  0  0  0  0  0  0  0
   -2.8500   15.7940  -10.4960 C   0  0  2  0  0  0  0  0  0  0  0  0
   -2.4940   15.6940   -9.4710 H   0  0  0  0  0  0  0  0  0  0  0  0
   -3.9360   14.7420  -10.7100 C   0  0  0  0  0  0  0  0  0  0  0  0
   -4.1170   14.2150  -11.8220 O   0  0  0  0  0  0  0  0  0  0  0  0
   -3.4310   17.1680  -10.7260 C   0  0  0  0  0  0  0  0  0  0  0  0
   -3.6970   17.2780  -11.7770 H   0  0  0  0  0  0  0  0  0  0  0  0
   -2.6920   17.9230  -10.4590 H   0  0  0  0  0  0  0  0  0  0  0  0
   -4.5930   17.3400   -9.9250 O   0  0  0  0  0  0  0  0  0  0  0  0
   -4.9690   18.2430  -10.0800 H   0  0  0  0  0  0  0  0  0  0  0  0
   -4.6520   14.4140   -9.6350 N   0  0  0  0  0  0  0  0  0  0  0  0
   -4.3590   14.7920   -8.7110 H   0  0  0  0  0  0  0  0  0  0  0  0
   -5.8320   13.5460   -9.6910 C   0  0  2  0  0  0  0  0  0  0  0  0
   -5.6450   12.7780  -10.4420 H   0  0  0  0  0  0  0  0  0  0  0  0
   -7.0770   14.3290  -10.1220 C   0  0  0  0  0  3  0  0  0  0  0  0
   -8.0250   13.7390  -10.5890 O   0  0  0  0  0  0  0  0  0  0  0  0
   -6.0610   12.8570   -8.3570 C   0  0  0  0  0  0  0  0  0  0  0  0
   -5.9730   13.6020   -7.5670 H   0  0  0  0  0  0  0  0  0  0  0  0
   -7.0700   12.4440   -8.3540 H   0  0  0  0  0  0  0  0  0  0  0  0
   -5.0730   11.7210   -8.0610 C   0  0  0  0  0  0  0  0  0  0  0  0
   -4.0720   11.8810   -7.1020 C   0  0  0  0  0  0  0  0  0  0  0  0
   -3.9860   12.8270   -6.5670 H   0  0  0  0  0  0  0  0  0  0  0  0
   -5.1740   10.4980   -8.7080 C   0  0  0  0  0  0  0  0  0  0  0  0
   -5.9560   10.3530   -9.4530 H   0  0  0  0  0  0  0  0  0  0  0  0
   -3.1820   10.8480   -6.8190 C   0  0  0  0  0  0  0  0  0  0  0  0
   -2.4060   10.9870   -6.0660 H   0  0  0  0  0  0  0  0  0  0  0  0
   -4.2920    9.4420   -8.4250 C   0  0  0  0  0  0  0  0  0  0  0  0
   -4.4060    8.4830   -8.9310 H   0  0  0  0  0  0  0  0  0  0  0  0
   -3.2860    9.6220   -7.5080 C   0  0  0  0  0  0  0  0  0  0  0  0
   -2.5720    8.8220   -7.3140 H   0  0  0  0  0  0  0  0  0  0  0  0
   -3.3140    5.0230  -13.0570 N   0  0  0  0  0  2  0  0  0  0  0  0
   -4.1400    5.6150  -12.8370 H   0  0  0  0  0  0  0  0  0  0  0  0
   -2.5170    4.4610  -11.9940 C   0  0  2  0  0  0  0  0  0  0  0  0
   -1.7250    3.8470  -12.4230 H   0  0  0  0  0  0  0  0  0  0  0  0
   -3.4380    3.6400  -11.1070 C   0  0  0  0  0  3  0  0  0  0  0  0
   -4.4710    4.1900  -10.6370 O   0  0  0  0  0  0  0  0  0  0  0  0
   -1.8540    5.5840  -11.1350 C   0  0  0  0  0  0  0  0  0  0  0  0
   -2.6490    6.2450  -10.7900 H   0  0  0  0  0  0  0  0  0  0  0  0
   -1.1450    4.9970   -9.9330 C   0  0  0  0  0  0  0  0  0  0  0  0
   -1.8650    4.4610   -9.3150 H   0  0  0  0  0  0  0  0  0  0  0  0
   -0.3700    4.3090  -10.2700 H   0  0  0  0  0  0  0  0  0  0  0  0
   -0.6920    5.8000   -9.3520 H   0  0  0  0  0  0  0  0  0  0  0  0
   -0.8790    6.3820  -11.9530 C   0  0  0  0  0  0  0  0  0  0  0  0
   -0.0980    5.7220  -12.3300 H   0  0  0  0  0  0  0  0  0  0  0  0
   -1.4020    6.8440  -12.7900 H   0  0  0  0  0  0  0  0  0  0  0  0
   -0.4320    7.1570  -11.3300 H   0  0  0  0  0  0  0  0  0  0  0  0
   -4.5210    2.0210   -7.7850 N   0  0  0  0  0  2  0  0  0  0  0  0
   -5.4600    2.1270   -8.2190 H   0  0  0  0  0  0  0  0  0  0  0  0
   -4.3760    2.2860   -6.3400 C   0  0  2  0  0  0  0  0  0  0  0  0
   -3.3700    1.9630   -6.0710 H   0  0  0  0  0  0  0  0  0  0  0  0
   -5.3740    1.4700   -5.5200 C   0  0  0  0  0  3  0  0  0  0  0  0
   -6.6090    1.7400   -5.5300 O   0  0  0  0  0  0  0  0  0  0  0  0
   -4.4620    3.8040   -5.9870 C   0  0  2  0  0  0  0  0  0  0  0  0
   -5.4400    4.1780   -6.2900 H   0  0  0  0  0  0  0  0  0  0  0  0
   -3.3750    4.5860   -6.7450 C   0  0  0  0  0  0  0  0  0  0  0  0
   -2.4260    4.4330   -6.2310 H   0  0  0  0  0  0  0  0  0  0  0  0
   -3.3090    4.1820   -7.7550 H   0  0  0  0  0  0  0  0  0  0  0  0
   -4.3050    4.0130   -4.4580 C   0  0  0  0  0  0  0  0  0  0  0  0
   -5.1000    3.4810   -3.9360 H   0  0  0  0  0  0  0  0  0  0  0  0
   -3.3370    3.6280   -4.1370 H   0  0  0  0  0  0  0  0  0  0  0  0
   -4.3670    5.0770   -4.2300 H   0  0  0  0  0  0  0  0  0  0  0  0
   -3.6210    6.0930   -6.8510 C   0  0  0  0  0  0  0  0  0  0  0  0
   -4.5590    6.2710   -7.3760 H   0  0  0  0  0  0  0  0  0  0  0  0
   -3.6760    6.5220   -5.8510 H   0  0  0  0  0  0  0  0  0  0  0  0
   -2.8020    6.5560   -7.4010 H   0  0  0  0  0  0  0  0  0  0  0  0
   -7.1030    4.9550  -11.2140 N   0  0  0  0  0  2  0  0  0  0  0  0
   -6.1220    4.6450  -11.0650 H   0  0  0  0  0  0  0  0  0  0  0  0
   -7.3690    6.3930  -11.2260 C   0  0  2  0  0  0  0  0  0  0  0  0
   -8.4260    6.5500  -11.4390 H   0  0  0  0  0  0  0  0  0  0  0  0
   -6.5510    7.1110  -12.3230 C   0  0  0  0  0  3  0  0  0  0  0  0
   -5.3670    6.8340  -12.4820 O   0  0  0  0  0  0  0  0  0  0  0  0
   -6.9990    6.9690   -9.8590 C   0  0  0  0  0  0  0  0  0  0  0  0
   -5.9460    6.7590   -9.6690 H   0  0  0  0  0  0  0  0  0  0  0  0
   -7.1550    8.0480   -9.8840 H   0  0  0  0  0  0  0  0  0  0  0  0
   -7.8100    6.3970   -8.7320 C   0  0  0  0  0  0  0  0  0  0  0  0
   -9.1120    6.7880   -8.4820 N   0  0  0  0  0  0  0  0  0  0  0  0
   -7.5200    5.4300   -7.8250 C   0  0  0  0  0  0  0  0  0  0  0  0
   -6.5730    4.9000   -7.7210 H   0  0  0  0  0  0  0  0  0  0  0  0
   -9.5840    6.0790   -7.4730 C   0  0  0  0  0  0  0  0  0  0  0  0
  -10.5840    6.1660   -7.0470 H   0  0  0  0  0  0  0  0  0  0  0  0
   -8.6430    5.2470   -7.0660 N   0  0  0  0  0  0  0  0  0  0  0  0
   -4.3430    9.9870  -13.8600 N   0  0  0  0  0  2  0  0  0  0  0  0
   -3.9430    9.2670  -14.4950 H   0  0  0  0  0  0  0  0  0  0  0  0
   -3.4660   11.0950  -13.4060 C   0  0  2  0  0  0  0  0  0  0  0  0
   -3.9980   11.6020  -12.6010 H   0  0  0  0  0  0  0  0  0  0  0  0
   -3.1980   12.0700  -14.5610 C   0  0  0  0  0  3  0  0  0  0  0  0
   -2.6940   11.6660  -15.6100 O   0  0  0  0  0  0  0  0  0  0  0  0
   -2.1230   10.5980  -12.8370 C   0  0  0  0  0  0  0  0  0  0  0  0
   -1.6160   10.0380  -13.6230 H   0  0  0  0  0  0  0  0  0  0  0  0
   -1.2160   11.7770  -12.4230 C   0  0  0  0  0  0  0  0  0  0  0  0
   -1.0140   12.4010  -13.2930 H   0  0  0  0  0  0  0  0  0  0  0  0
   -1.7190   12.3690  -11.6580 H   0  0  0  0  0  0  0  0  0  0  0  0
   -0.2780   11.3900  -12.0260 H   0  0  0  0  0  0  0  0  0  0  0  0
   -2.3600    9.6900  -11.6480 C   0  0  0  0  0  0  0  0  0  0  0  0
   -2.8940   10.2400  -10.8730 H   0  0  0  0  0  0  0  0  0  0  0  0
   -2.9540    8.8310  -11.9610 H   0  0  0  0  0  0  0  0  0  0  0  0
   -1.4020    9.3470  -11.2570 H   0  0  0  0  0  0  0  0  0  0  0  0
   10.6540   11.3050   -5.5760 N   0  0  0  0  0  2  0  0  0  0  0  0
   10.3920   12.2850   -5.8030 H   0  0  0  0  0  0  0  0  0  0  0  0
   10.0940   10.6720   -4.3490 C   0  0  2  0  0  0  0  0  0  0  0  0
   10.8680    9.9920   -3.9930 H   0  0  0  0  0  0  0  0  0  0  0  0
    8.8430    9.8410   -4.6350 C   0  0  0  0  0  0  0  0  0  0  0  0
    8.3760    9.1070   -3.7350 O   0  0  0  0  0  0  0  0  0  0  0  0
    9.8210   11.6790   -3.2540 C   0  0  0  0  0  0  0  0  0  0  0  0
   10.7510   12.1790   -2.9810 H   0  0  0  0  0  0  0  0  0  0  0  0
    9.1020   12.4160   -3.6110 H   0  0  0  0  0  0  0  0  0  0  0  0
    9.4140   11.1650   -2.3830 H   0  0  0  0  0  0  0  0  0  0  0  0
    8.3280    9.9240   -5.8760 N   0  0  0  0  0  0  0  0  0  0  0  0
    8.8050   10.5390   -6.5650 H   0  0  0  0  0  0  0  0  0  0  0  0
    7.1420    9.2010   -6.3060 C   0  0  2  0  0  0  0  0  0  0  0  0
    6.4000    9.3360   -5.5190 H   0  0  0  0  0  0  0  0  0  0  0  0
    7.4250    7.7530   -6.4980 C   0  0  0  0  0  0  0  0  0  0  0  0
    8.5700    7.2700   -6.4620 O   0  0  0  0  0  0  0  0  0  0  0  0
    6.6180    9.7450   -7.6390 C   0  0  0  0  0  0  0  0  0  0  0  0
    5.6190    9.3460   -7.8150 H   0  0  0  0  0  0  0  0  0  0  0  0
    7.2840    9.4210   -8.4390 H   0  0  0  0  0  0  0  0  0  0  0  0
    6.5530   11.1910   -7.6390 O   0  0  0  0  0  0  0  0  0  0  0  0
    6.2110   11.5050   -8.5140 H   0  0  0  0  0  0  0  0  0  0  0  0
    6.3550    7.0580   -6.8100 N   0  0  0  0  0  0  0  0  0  0  0  0
    5.4610    7.5640   -6.9720 H   0  0  0  0  0  0  0  0  0  0  0  0
    6.3700    5.6400   -6.9350 C   0  0  2  0  0  0  0  0  0  0  0  0
    7.1620    5.1570   -6.3640 H   0  0  0  0  0  0  0  0  0  0  0  0
    6.5790    5.3360   -8.4090 C   0  0  0  0  0  3  0  0  0  0  0  0
    6.0940    6.0730   -9.2600 O   0  0  0  0  0  0  0  0  0  0  0  0
    5.0220    5.1190   -6.4090 C   0  0  0  0  0  0  0  0  0  0  0  0
    4.2350    5.7010   -6.8870 H   0  0  0  0  0  0  0  0  0  0  0  0
    4.9330    4.0750   -6.7090 H   0  0  0  0  0  0  0  0  0  0  0  0
    4.7900    5.1880   -4.8740 C   0  0  0  0  0  0  0  0  0  0  0  0
    5.0100    6.2120   -4.5710 H   0  0  0  0  0  0  0  0  0  0  0  0
    3.3110    4.7880   -4.5700 C   0  0  0  0  0  0  0  0  0  0  0  0
    2.6380    5.4790   -5.0770 H   0  0  0  0  0  0  0  0  0  0  0  0
    3.1300    3.7740   -4.9260 H   0  0  0  0  0  0  0  0  0  0  0  0
    3.1370    4.8330   -3.4950 H   0  0  0  0  0  0  0  0  0  0  0  0
    5.7270    4.2640   -4.0560 C   0  0  0  0  0  0  0  0  0  0  0  0
    5.5710    3.2290   -4.3610 H   0  0  0  0  0  0  0  0  0  0  0  0
    6.7640    4.5460   -4.2400 H   0  0  0  0  0  0  0  0  0  0  0  0
    5.5030    4.3690   -2.9940 H   0  0  0  0  0  0  0  0  0  0  0  0
    5.3050    3.2970  -10.3550 N   0  0  0  0  0  2  0  0  0  0  0  0
    5.3190    3.2100   -9.3190 H   0  0  0  0  0  0  0  0  0  0  0  0
    4.1120    2.9140  -11.0930 C   0  0  2  0  0  0  0  0  0  0  0  0
    4.3770    2.2010  -11.8730 H   0  0  0  0  0  0  0  0  0  0  0  0
    3.5250    4.1710  -11.7290 C   0  0  0  0  0  0  0  0  0  0  0  0
    2.8290    4.0740  -12.7370 O   0  0  0  0  0  0  0  0  0  0  0  0
    3.0890    2.1810  -10.2000 C   0  0  0  0  0  0  0  0  0  0  0  0
    2.2390    1.8870  -10.8160 H   0  0  0  0  0  0  0  0  0  0  0  0
    3.5630    1.2900   -9.7890 H   0  0  0  0  0  0  0  0  0  0  0  0
    2.5850    3.0260   -9.0590 C   0  0  0  0  0  0  0  0  0  0  0  0
    3.2850    2.9380   -8.2280 H   0  0  0  0  0  0  0  0  0  0  0  0
    2.5440    4.0640   -9.3890 H   0  0  0  0  0  0  0  0  0  0  0  0
    1.2080    2.6210   -8.5730 C   0  0  0  0  0  0  0  0  0  0  0  0
    0.7530    3.4710   -8.0650 H   0  0  0  0  0  0  0  0  0  0  0  0
    0.6000    2.3470   -9.4350 H   0  0  0  0  0  0  0  0  0  0  0  0
    1.2480    1.4500   -7.6160 C   0  0  0  0  0  0  0  0  0  0  0  0
    2.1300    1.5540   -6.9850 H   0  0  0  0  0  0  0  0  0  0  0  0
    1.3270    0.5330   -8.2000 H   0  0  0  0  0  0  0  0  0  0  0  0
    0.0220    1.3380   -6.7120 N   0  0  0  0  0  4  0  0  0  0  0  0
   -0.0630    2.2000   -6.1370 H   0  0  0  0  0  0  0  0  0  0  0  0
   -0.8300    1.2250   -7.2980 H   0  0  0  0  0  0  0  0  0  0  0  0
    0.1270    0.5130   -6.0880 H   0  0  0  0  0  0  0  0  0  0  0  0
    3.8150    5.3320  -11.1570 N   0  0  0  0  0  0  0  0  0  0  0  0
    4.3440    5.3460  -10.2620 H   0  0  0  0  0  0  0  0  0  0  0  0
    3.4060    6.5700  -11.7600 C   0  0  2  0  0  0  0  0  0  0  0  0
    2.6010    6.3500  -12.4610 H   0  0  0  0  0  0  0  0  0  0  0  0
    4.5830    7.2000  -12.5340 C   0  0  0  0  0  3  0  0  0  0  0  0
    4.3900    7.6850  -13.6440 O   0  0  0  0  0  0  0  0  0  0  0  0
    2.8330    7.5740  -10.6990 C   0  0  0  0  0  0  0  0  0  0  0  0
    1.7520    7.4410  -10.6510 H   0  0  0  0  0  0  0  0  0  0  0  0
    3.2710    7.3350   -9.7300 H   0  0  0  0  0  0  0  0  0  0  0  0
    3.1220    9.0400  -11.0060 C   0  0  0  0  0  0  0  0  0  0  0  0
    2.4190    9.6990  -11.9770 C   0  0  0  0  0  0  0  0  0  0  0  0
    1.6340    9.1740  -12.5200 H   0  0  0  0  0  0  0  0  0  0  0  0
    4.1580    9.7400  -10.3510 C   0  0  0  0  0  0  0  0  0  0  0  0
    4.7460    9.2230   -9.5930 H   0  0  0  0  0  0  0  0  0  0  0  0
    2.7000   11.0760  -12.2930 C   0  0  0  0  0  0  0  0  0  0  0  0
    2.1060   11.5870  -13.0510 H   0  0  0  0  0  0  0  0  0  0  0  0
    4.4620   11.1120  -10.6520 C   0  0  0  0  0  0  0  0  0  0  0  0
    5.2550   11.6380  -10.1200 H   0  0  0  0  0  0  0  0  0  0  0  0
    3.7150   11.7570  -11.6450 C   0  0  0  0  0  0  0  0  0  0  0  0
    3.9630   13.0750  -12.0290 O   0  0  0  0  0  0  0  0  0  0  0  0
    3.3260   13.3360  -12.7410 H   0  0  0  0  0  0  0  0  0  0  0  0
   10.9780    6.3050   -4.9480 N   0  0  0  0  0  2  0  0  0  0  0  0
   10.1880    5.9880   -5.5450 H   0  0  0  0  0  0  0  0  0  0  0  0
   10.7200    6.5580   -3.5270 C   0  0  2  0  0  0  0  0  0  0  0  0
   10.9690    7.6020   -3.3390 H   0  0  0  0  0  0  0  0  0  0  0  0
   11.6250    5.7190   -2.6400 C   0  0  0  0  0  3  0  0  0  0  0  0
   12.2670    6.2920   -1.7970 O   0  0  0  0  0  0  0  0  0  0  0  0
    9.2040    6.4100   -3.1540 C   0  0  0  0  0  0  0  0  0  0  0  0
    8.6640    7.2090   -3.6620 H   0  0  0  0  0  0  0  0  0  0  0  0
    8.8680    5.4460   -3.5360 H   0  0  0  0  0  0  0  0  0  0  0  0
    8.8060    6.4750   -1.6050 C   0  0  0  0  0  0  0  0  0  0  0  0
    9.0730    5.5270   -1.1380 H   0  0  0  0  0  0  0  0  0  0  0  0
    9.3690    7.2810   -1.1350 H   0  0  0  0  0  0  0  0  0  0  0  0
    7.2710    6.7340   -1.3710 C   0  0  0  0  0  0  0  0  0  0  0  0
    6.9860    6.4380   -0.3620 H   0  0  0  0  0  0  0  0  0  0  0  0
    6.6770    6.1740   -2.0940 H   0  0  0  0  0  0  0  0  0  0  0  0
    7.0740    8.1750   -1.5550 N   0  0  0  0  0  0  0  0  0  0  0  0
    7.9010    8.7810   -1.3810 H   0  0  0  0  0  0  0  0  0  0  0  0
    5.9530    8.7950   -1.9200 C   0  0  0  0  0  0  0  0  0  0  0  0
    4.8300    8.1290   -2.1550 N   0  0  0  0  0  4  0  0  0  0  0  0
    4.8090    7.0940   -2.0560 H   0  0  0  0  0  0  0  0  0  0  0  0
    3.9710    8.6420   -2.4390 H   0  0  0  0  0  0  0  0  0  0  0  0
    5.9750   10.1110   -2.0680 N   0  0  0  0  0  0  0  0  0  0  0  0
    6.8550   10.6390   -1.9000 H   0  0  0  0  0  0  0  0  0  0  0  0
    5.1120   10.6170   -2.3520 H   0  0  0  0  0  0  0  0  0  0  0  0
   11.6800   13.6970    2.1500 N   0  0  0  0  0  2  0  0  0  0  0  0
   11.0060   14.3750    1.7400 H   0  0  0  0  0  0  0  0  0  0  0  0
   12.3750   12.7460    1.2760 C   0  0  2  0  0  0  0  0  0  0  0  0
   12.5890   11.8420    1.8460 H   0  0  0  0  0  0  0  0  0  0  0  0
   13.6730   13.4000    0.7880 C   0  0  0  0  0  3  0  0  0  0  0  0
   13.6690   14.3550    0.0170 O   0  0  0  0  0  0  0  0  0  0  0  0
   11.5200   12.3200    0.0890 C   0  0  0  0  0  0  0  0  0  0  0  0
   11.3570   13.1990   -0.5350 H   0  0  0  0  0  0  0  0  0  0  0  0
   12.0810   11.5750   -0.4740 H   0  0  0  0  0  0  0  0  0  0  0  0
   10.1640   11.7270    0.4160 C   0  0  0  0  0  0  0  0  0  0  0  0
   10.0310   10.3500    0.7370 C   0  0  0  0  0  0  0  0  0  0  0  0
   10.9170    9.7150    0.7680 H   0  0  0  0  0  0  0  0  0  0  0  0
    9.0060   12.5450    0.3790 C   0  0  0  0  0  0  0  0  0  0  0  0
    9.1020   13.6000    0.1210 H   0  0  0  0  0  0  0  0  0  0  0  0
    8.7740    9.8000    1.0140 C   0  0  0  0  0  0  0  0  0  0  0  0
    8.6750    8.7420    1.2580 H   0  0  0  0  0  0  0  0  0  0  0  0
    7.7410   12.0170    0.6690 C   0  0  0  0  0  0  0  0  0  0  0  0
    6.8570   12.6550    0.6610 H   0  0  0  0  0  0  0  0  0  0  0  0
    7.6340   10.6360    0.9730 C   0  0  0  0  0  0  0  0  0  0  0  0
    6.3730   10.1120    1.2340 O   0  0  0  0  0  0  0  0  0  0  0  0
    6.4530    9.1450    1.4290 H   0  0  0  0  0  0  0  0  0  0  0  0
    6.8140   13.4770   -8.2220 H   0  0  0  0  0  0  0  0  0  0  0  0
   -8.7350    4.5970   -6.3320 H   0  0  0  0  0  0  0  0  0  0  0  0
  1  2  1  0
  1  3  1  0
  3  4  1  6
  3  5  1  0
  3  7  1  0
  5  6  2  0
  7  8  1  0
  7  9  1  0
  7 10  1  0
 10 11  2  0
 10 12  1  0
 12250  1  0
 13 14  1  0
 13 15  1  0
 15 16  1  6
 15 17  1  0
 15 19  1  0
 17 18  2  0
 17 24  1  0
 19 20  1  0
 19 21  1  0
 19 22  1  0
 22 23  1  0
 24 25  1  0
 24 26  1  0
 26 27  1  1
 26 28  1  0
 26 30  1  0
 28 29  2  0
 28 35  1  0
 30 31  1  0
 30 32  1  0
 30 33  1  0
 33 34  1  0
 35 36  1  0
 35 37  1  0
 37 38  1  6
 37 39  1  0
 37 41  1  0
 39 40  2  0
 41 42  1  0
 41 43  1  0
 41 44  1  0
 44 45  2  0
 44 47  1  0
 45 46  1  0
 45 49  1  0
 47 48  1  0
 47 51  2  0
 49 50  1  0
 49 53  2  0
 51 52  1  0
 51 53  1  0
 53 54  1  0
 55 56  1  0
 55 57  1  0
 57 58  1  6
 57 59  1  0
 57 61  1  0
 59 60  2  0
 61 62  1  0
 61 63  1  0
 61 67  1  0
 63 64  1  0
 63 65  1  0
 63 66  1  0
 67 68  1  0
 67 69  1  0
 67 70  1  0
 71 72  1  0
 71 73  1  0
 73 74  1  1
 73 75  1  0
 73 77  1  0
 75 76  2  0
 77 78  1  6
 77 79  1  0
 77 82  1  0
 79 80  1  0
 79 81  1  0
 79 86  1  0
 82 83  1  0
 82 84  1  0
 82 85  1  0
 86 87  1  0
 86 88  1  0
 86 89  1  0
 90 91  1  0
 90 92  1  0
 92 93  1  6
 92 94  1  0
 92 96  1  0
 94 95  2  0
 96 97  1  0
 96 98  1  0
 96 99  1  0
 99100  1  0
 99101  2  0
100103  2  0
101102  1  0
101105  1  0
103104  1  0
103105  1  0
105251  1  0
106107  1  0
106108  1  0
108109  1  1
108110  1  0
108112  1  0
110111  2  0
112113  1  0
112114  1  0
112118  1  0
114115  1  0
114116  1  0
114117  1  0
118119  1  0
118120  1  0
118121  1  0
122123  1  0
122124  1  0
124125  1  1
124126  1  0
124128  1  0
126127  2  0
126132  1  0
128129  1  0
128130  1  0
128131  1  0
132133  1  0
132134  1  0
134135  1  1
134136  1  0
134138  1  0
136137  2  0
136143  1  0
138139  1  0
138140  1  0
138141  1  0
141142  1  0
143144  1  0
143145  1  0
145146  1  1
145147  1  0
145149  1  0
147148  2  0
149150  1  0
149151  1  0
149152  1  0
152153  1  0
152154  1  0
152158  1  0
154155  1  0
154156  1  0
154157  1  0
158159  1  0
158160  1  0
158161  1  0
162163  1  0
162164  1  0
164165  1  6
164166  1  0
164168  1  0
166167  2  0
166184  1  0
168169  1  0
168170  1  0
168171  1  0
171172  1  0
171173  1  0
171174  1  0
174175  1  0
174176  1  0
174177  1  0
177178  1  0
177179  1  0
177180  1  0
180181  1  0
180182  1  0
180183  1  0
184185  1  0
184186  1  0
186187  1  6
186188  1  0
186190  1  0
188189  2  0
190191  1  0
190192  1  0
190193  1  0
193194  2  0
193196  1  0
194195  1  0
194198  1  0
196197  1  0
196200  2  0
198199  1  0
198202  2  0
200201  1  0
200202  1  0
202203  1  0
203204  1  0
205206  1  0
205207  1  0
207208  1  6
207209  1  0
207211  1  0
209210  2  0
211212  1  0
211213  1  0
211214  1  0
214215  1  0
214216  1  0
214217  1  0
217218  1  0
217219  1  0
217220  1  0
220221  1  0
220222  1  0
222223  2  0
222226  1  0
223224  1  0
223225  1  0
226227  1  0
226228  1  0
229230  1  0
229231  1  0
231232  1  1
231233  1  0
231235  1  0
233234  2  0
235236  1  0
235237  1  0
235238  1  0
238239  2  0
238241  1  0
239240  1  0
239243  1  0
241242  1  0
241245  2  0
243244  1  0
243247  2  0
245246  1  0
245247  1  0
247248  1  0
248249  1  0
M  RAD  8   1   2   5   2  13   2  39   2  55   2  59   2  71   2  75   2
M  RAD  8  90   2  94   2 106   2 110   2 122   2 147   2 162   2 188   2
M  CHG  2 180   1 223   1
M  RAD  4 205   2 209   2 229   2 233   2
M  END
$$$$

     RDKit          3D

251245  0  0  0  0  0  0  0  0999 V2000
    8.2390   15.7430  -10.2460 N   0  0  0  0  0  2  0  0  0  0  0  0
    8.4060   14.8450   -9.7480 H   0  0  0  0  0  0  0  0  0  0  0  0
    7.1270   16.5820   -9.8330 C   0  0  2  0  0  0  0  0  0  0  0  0
    6.5240   16.7530  -10.7240 H   0  0  0  0  0  0  0  0  0  0  0  0
    7.5010   17.9630   -9.3590 C   0  0  0  0  0  3  0  0  0  0  0  0
    8.3130   18.1090   -8.4540 O   0  0  0  0  0  0  0  0  0  0  0  0
    6.3630   15.8620   -8.7680 C   0  0  0  0  0  0  0  0  0  0  0  0
    7.0440   15.5910   -7.9610 H   0  0  0  0  0  0  0  0  0  0  0  0
    5.5850   16.5200   -8.3800 H   0  0  0  0  0  0  0  0  0  0  0  0
    5.7360   14.6350   -9.3040 C   0  0  0  0  0  0  0  0  0  0  0  0
    4.8520   14.7920  -10.1880 O   0  0  0  0  0  0  0  0  0  0  0  0
    6.1520   13.5130   -8.8840 O   0  0  0  0  0  0  0  0  0  0  0  0
    1.6580   16.8130  -11.9920 N   0  0  0  0  0  2  0  0  0  0  0  0
    2.3630   16.6600  -11.2430 H   0  0  0  0  0  0  0  0  0  0  0  0
    0.5750   15.8710  -12.1280 C   0  0  2  0  0  0  0  0  0  0  0  0
    0.1290   15.9910  -13.1150 H   0  0  0  0  0  0  0  0  0  0  0  0
   -0.5220   16.1130  -11.1130 C   0  0  0  0  0  0  0  0  0  0  0  0
   -0.2990   16.7340  -10.0760 O   0  0  0  0  0  0  0  0  0  0  0  0
    1.1300   14.4960  -11.9520 C   0  0  0  0  0  0  0  0  0  0  0  0
    0.3140   13.7740  -11.9180 H   0  0  0  0  0  0  0  0  0  0  0  0
    1.6970   14.4460  -11.0220 H   0  0  0  0  0  0  0  0  0  0  0  0
    1.9940   14.1960  -13.0610 O   0  0  0  0  0  0  0  0  0  0  0  0
    2.3660   13.2850  -12.9510 H   0  0  0  0  0  0  0  0  0  0  0  0
   -1.7070   15.5990  -11.3820 N   0  0  0  0  0  0  0  0  0  0  0  0
   -1.8300   15.0390  -12.2500 H   0  0  0  0  0  0  0  0  0  0  0  0
   -2.8500   15.7940  -10.4960 C   0  0  2  0  0  0  0  0  0  0  0  0
   -2.4940   15.6940   -9.4710 H   0  0  0  0  0  0  0  0  0  0  0  0
   -3.9360   14.7420  -10.7100 C   0  0  0  0  0  0  0  0  0  0  0  0
   -4.1170   14.2150  -11.8220 O   0  0  0  0  0  0  0  0  0  0  0  0
   -3.4310   17.1680  -10.7260 C   0  0  0  0  0  0  0  0  0  0  0  0
   -3.6970   17.2780  -11.7770 H   0  0  0  0  0  0  0  0  0  0  0  0
   -2.6920   17.9230  -10.4590 H   0  0  0  0  0  0  0  0  0  0  0  0
   -4.5930   17.3400   -9.9250 O   0  0  0  0  0  0  0  0  0  0  0  0
   -4.9690   18.2430  -10.0800 H   0  0  0  0  0  0  0  0  0  0  0  0
   -4.6520   14.4140   -9.6350 N   0  0  0  0  0  0  0  0  0  0  0  0
   -4.3590   14.7920   -8.7110 H   0  0  0  0  0  0  0  0  0  0  0  0
   -5.8320   13.5460   -9.6910 C   0  0  2  0  0  0  0  0  0  0  0  0
   -5.6450   12.7780  -10.4420 H   0  0  0  0  0  0  0  0  0  0  0  0
   -7.0770   14.3290  -10.1220 C   0  0  0  0  0  3  0  0  0  0  0  0
   -8.0250   13.7390  -10.5890 O   0  0  0  0  0  0  0  0  0  0  0  0
   -6.0610   12.8570   -8.3570 C   0  0  0  0  0  0  0  0  0  0  0  0
   -5.9730   13.6020   -7.5670 H   0  0  0  0  0  0  0  0  0  0  0  0
   -7.0700   12.4440   -8.3540 H   0  0  0  0  0  0  0  0  0  0  0  0
   -5.0730   11.7210   -8.0610 C   0  0  0  0  0  0  0  0  0  0  0  0
   -4.0720   11.8810   -7.1020 C   0  0  0  0  0  0  0  0  0  0  0  0
   -3.9860   12.8270   -6.5670 H   0  0  0  0  0  0  0  0  0  0  0  0
   -5.1740   10.4980   -8.7080 C   0  0  0  0  0  0  0  0  0  0  0  0
   -5.9560   10.3530   -9.4530 H   0  0  0  0  0  0  0  0  0  0  0  0
   -3.1820   10.8480   -6.8190 C   0  0  0  0  0  0  0  0  0  0  0  0
   -2.4060   10.9870   -6.0660 H   0  0  0  0  0  0  0  0  0  0  0  0
   -4.2920    9.4420   -8.4250 C   0  0  0  0  0  0  0  0  0  0  0  0
   -4.4060    8.4830   -8.9310 H   0  0  0  0  0  0  0  0  0  0  0  0
   -3.2860    9.6220   -7.5080 C   0  0  0  0  0  0  0  0  0  0  0  0
   -2.5720    8.8220   -7.3140 H   0  0  0  0  0  0  0  0  0  0  0  0
   -3.3140    5.0230  -13.0570 N   0  0  0  0  0  2  0  0  0  0  0  0
   -4.1400    5.6150  -12.8370 H   0  0  0  0  0  0  0  0  0  0  0  0
   -2.5170    4.4610  -11.9940 C   0  0  2  0  0  0  0  0  0  0  0  0
   -1.7250    3.8470  -12.4230 H   0  0  0  0  0  0  0  0  0  0  0  0
   -3.4380    3.6400  -11.1070 C   0  0  0  0  0  3  0  0  0  0  0  0
   -4.4710    4.1900  -10.6370 O   0  0  0  0  0  0  0  0  0  0  0  0
   -1.8540    5.5840  -11.1350 C   0  0  0  0  0  0  0  0  0  0  0  0
   -2.6490    6.2450  -10.7900 H   0  0  0  0  0  0  0  0  0  0  0  0
   -1.1450    4.9970   -9.9330 C   0  0  0  0  0  0  0  0  0  0  0  0
   -1.8650    4.4610   -9.3150 H   0  0  0  0  0  0  0  0  0  0  0  0
   -0.3700    4.3090  -10.2700 H   0  0  0  0  0  0  0  0  0  0  0  0
   -0.6920    5.8000   -9.3520 H   0  0  0  0  0  0  0  0  0  0  0  0
   -0.8790    6.3820  -11.9530 C   0  0  0  0  0  0  0  0  0  0  0  0
   -0.0980    5.7220  -12.3300 H   0  0  0  0  0  0  0  0  0  0  0  0
   -1.4020    6.8440  -12.7900 H   0  0  0  0  0  0  0  0  0  0  0  0
   -0.4320    7.1570  -11.3300 H   0  0  0  0  0  0  0  0  0  0  0  0
   -4.5210    2.0210   -7.7850 N   0  0  0  0  0  2  0  0  0  0  0  0
   -5.4600    2.1270   -8.2190 H   0  0  0  0  0  0  0  0  0  0  0  0
   -4.3760    2.2860   -6.3400 C   0  0  2  0  0  0  0  0  0  0  0  0
   -3.3700    1.9630   -6.0710 H   0  0  0  0  0  0  0  0  0  0  0  0
   -5.3740    1.4700   -5.5200 C   0  0  0  0  0  3  0  0  0  0  0  0
   -6.6090    1.7400   -5.5300 O   0  0  0  0  0  0  0  0  0  0  0  0
   -4.4620    3.8040   -5.9870 C   0  0  2  0  0  0  0  0  0  0  0  0
   -5.4400    4.1780   -6.2900 H   0  0  0  0  0  0  0  0  0  0  0  0
   -3.3750    4.5860   -6.7450 C   0  0  0  0  0  0  0  0  0  0  0  0
   -2.4260    4.4330   -6.2310 H   0  0  0  0  0  0  0  0  0  0  0  0
   -3.3090    4.1820   -7.7550 H   0  0  0  0  0  0  0  0  0  0  0  0
   -4.3050    4.0130   -4.4580 C   0  0  0  0  0  0  0  0  0  0  0  0
   -5.1000    3.4810   -3.9360 H   0  0  0  0  0  0  0  0  0  0  0  0
   -3.3370    3.6280   -4.1370 H   0  0  0  0  0  0  0  0  0  0  0  0
   -4.3670    5.0770   -4.2300 H   0  0  0  0  0  0  0  0  0  0  0  0
   -3.6210    6.0930   -6.8510 C   0  0  0  0  0  0  0  0  0  0  0  0
   -4.5590    6.2710   -7.3760 H   0  0  0  0  0  0  0  0  0  0  0  0
   -3.6760    6.5220   -5.8510 H   0  0  0  0  0  0  0  0  0  0  0  0
   -2.8020    6.5560   -7.4010 H   0  0  0  0  0  0  0  0  0  0  0  0
   -7.1030    4.9550  -11.2140 N   0  0  0  0  0  2  0  0  0  0  0  0
   -6.1220    4.6450  -11.0650 H   0  0  0  0  0  0  0  0  0  0  0  0
   -7.3690    6.3930  -11.2260 C   0  0  2  0  0  0  0  0  0  0  0  0
   -8.4260    6.5500  -11.4390 H   0  0  0  0  0  0  0  0  0  0  0  0
   -6.5510    7.1110  -12.3230 C   0  0  0  0  0  3  0  0  0  0  0  0
   -5.3670    6.8340  -12.4820 O   0  0  0  0  0  0  0  0  0  0  0  0
   -6.9990    6.9690   -9.8590 C   0  0  0  0  0  0  0  0  0  0  0  0
   -5.9460    6.7590   -9.6690 H   0  0  0  0  0  0  0  0  0  0  0  0
   -7.1550    8.0480   -9.8840 H   0  0  0  0  0  0  0  0  0  0  0  0
   -7.8100    6.3970   -8.7320 C   0  0  0  0  0  0  0  0  0  0  0  0
   -9.1120    6.7880   -8.4820 N   0  0  0  0  0  0  0  0  0  0  0  0
   -7.5200    5.4300   -7.8250 C   0  0  0  0  0  0  0  0  0  0  0  0
   -6.5730    4.9000   -7.7210 H   0  0  0  0  0  0  0  0  0  0  0  0
   -9.5840    6.0790   -7.4730 C   0  0  0  0  0  0  0  0  0  0  0  0
  -10.5840    6.1660   -7.0470 H   0  0  0  0  0  0  0  0  0  0  0  0
   -8.6430    5.2470   -7.0660 N   0  0  0  0  0  0  0  0  0  0  0  0
   -4.3430    9.9870  -13.8600 N   0  0  0  0  0  2  0  0  0  0  0  0
   -3.9430    9.2670  -14.4950 H   0  0  0  0  0  0  0  0  0  0  0  0
   -3.4660   11.0950  -13.4060 C   0  0  2  0  0  0  0  0  0  0  0  0
   -3.9980   11.6020  -12.6010 H   0  0  0  0  0  0  0  0  0  0  0  0
   -3.1980   12.0700  -14.5610 C   0  0  0  0  0  3  0  0  0  0  0  0
   -2.6940   11.6660  -15.6100 O   0  0  0  0  0  0  0  0  0  0  0  0
   -2.1230   10.5980  -12.8370 C   0  0  0  0  0  0  0  0  0  0  0  0
   -1.6160   10.0380  -13.6230 H   0  0  0  0  0  0  0  0  0  0  0  0
   -1.2160   11.7770  -12.4230 C   0  0  0  0  0  0  0  0  0  0  0  0
   -1.0140   12.4010  -13.2930 H   0  0  0  0  0  0  0  0  0  0  0  0
   -1.7190   12.3690  -11.6580 H   0  0  0  0  0  0  0  0  0  0  0  0
   -0.2780   11.3900  -12.0260 H   0  0  0  0  0  0  0  0  0  0  0  0
   -2.3600    9.6900  -11.6480 C   0  0  0  0  0  0  0  0  0  0  0  0
   -2.8940   10.2400  -10.8730 H   0  0  0  0  0  0  0  0  0  0  0  0
   -2.9540    8.8310  -11.9610 H   0  0  0  0  0  0  0  0  0  0  0  0
   -1.4020    9.3470  -11.2570 H   0  0  0  0  0  0  0  0  0  0  0  0
   10.6540   11.3050   -5.5760 N   0  0  0  0  0  2  0  0  0  0  0  0
   10.3920   12.2850   -5.8030 H   0  0  0  0  0  0  0  0  0  0  0  0
   10.0940   10.6720   -4.3490 C   0  0  2  0  0  0  0  0  0  0  0  0
   10.8680    9.9920   -3.9930 H   0  0  0  0  0  0  0  0  0  0  0  0
    8.8430    9.8410   -4.6350 C   0  0  0  0  0  0  0  0  0  0  0  0
    8.3760    9.1070   -3.7350 O   0  0  0  0  0  0  0  0  0  0  0  0
    9.8210   11.6790   -3.2540 C   0  0  0  0  0  0  0  0  0  0  0  0
   10.7510   12.1790   -2.9810 H   0  0  0  0  0  0  0  0  0  0  0  0
    9.1020   12.4160   -3.6110 H   0  0  0  0  0  0  0  0  0  0  0  0
    9.4140   11.1650   -2.3830 H   0  0  0  0  0  0  0  0  0  0  0  0
    8.3280    9.9240   -5.8760 N   0  0  0  0  0  0  0  0  0  0  0  0
    8.8050   10.5390   -6.5650 H   0  0  0  0  0  0  0  0  0  0  0  0
    7.1420    9.2010   -6.3060 C   0  0  2  0  0  0  0  0  0  0  0  0
    6.4000    9.3360   -5.5190 H   0  0  0  0  0  0  0  0  0  0  0  0
    7.4250    7.7530   -6.4980 C   0  0  0  0  0  0  0  0  0  0  0  0
    8.5700    7.2700   -6.4620 O   0  0  0  0  0  0  0  0  0  0  0  0
    6.6180    9.7450   -7.6390 C   0  0  0  0  0  0  0  0  0  0  0  0
    5.6190    9.3460   -7.8150 H   0  0  0  0  0  0  0  0  0  0  0  0
    7.2840    9.4210   -8.4390 H   0  0  0  0  0  0  0  0  0  0  0  0
    6.5530   11.1910   -7.6390 O   0  0  0  0  0  0  0  0  0  0  0  0
    6.2110   11.5050   -8.5140 H   0  0  0  0  0  0  0  0  0  0  0  0
    6.3550    7.0580   -6.8100 N   0  0  0  0  0  0  0  0  0  0  0  0
    5.4610    7.5640   -6.9720 H   0  0  0  0  0  0  0  0  0  0  0  0
    6.3700    5.6400   -6.9350 C   0  0  2  0  0  0  0  0  0  0  0  0
    7.1620    5.1570   -6.3640 H   0  0  0  0  0  0  0  0  0  0  0  0
    6.5790    5.3360   -8.4090 C   0  0  0  0  0  3  0  0  0  0  0  0
    6.0940    6.0730   -9.2600 O   0  0  0  0  0  0  0  0  0  0  0  0
    5.0220    5.1190   -6.4090 C   0  0  0  0  0  0  0  0  0  0  0  0
    4.2350    5.7010   -6.8870 H   0  0  0  0  0  0  0  0  0  0  0  0
    4.9330    4.0750   -6.7090 H   0  0  0  0  0  0  0  0  0  0  0  0
    4.7900    5.1880   -4.8740 C   0  0  0  0  0  0  0  0  0  0  0  0
    5.0100    6.2120   -4.5710 H   0  0  0  0  0  0  0  0  0  0  0  0
    3.3110    4.7880   -4.5700 C   0  0  0  0  0  0  0  0  0  0  0  0
    2.6380    5.4790   -5.0770 H   0  0  0  0  0  0  0  0  0  0  0  0
    3.1300    3.7740   -4.9260 H   0  0  0  0  0  0  0  0  0  0  0  0
    3.1370    4.8330   -3.4950 H   0  0  0  0  0  0  0  0  0  0  0  0
    5.7270    4.2640   -4.0560 C   0  0  0  0  0  0  0  0  0  0  0  0
    5.5710    3.2290   -4.3610 H   0  0  0  0  0  0  0  0  0  0  0  0
    6.7640    4.5460   -4.2400 H   0  0  0  0  0  0  0  0  0  0  0  0
    5.5030    4.3690   -2.9940 H   0  0  0  0  0  0  0  0  0  0  0  0
    5.3050    3.2970  -10.3550 N   0  0  0  0  0  2  0  0  0  0  0  0
    5.3190    3.2100   -9.3190 H   0  0  0  0  0  0  0  0  0  0  0  0
    4.1120    2.9140  -11.0930 C   0  0  2  0  0  0  0  0  0  0  0  0
    4.3770    2.2010  -11.8730 H   0  0  0  0  0  0  0  0  0  0  0  0
    3.5250    4.1710  -11.7290 C   0  0  0  0  0  0  0  0  0  0  0  0
    2.8290    4.0740  -12.7370 O   0  0  0  0  0  0  0  0  0  0  0  0
    3.0890    2.1810  -10.2000 C   0  0  0  0  0  0  0  0  0  0  0  0
    2.2390    1.8870  -10.8160 H   0  0  0  0  0  0  0  0  0  0  0  0
    3.5630    1.2900   -9.7890 H   0  0  0  0  0  0  0  0  0  0  0  0
    2.5850    3.0260   -9.0590 C   0  0  0  0  0  0  0  0  0  0  0  0
    3.2850    2.9380   -8.2280 H   0  0  0  0  0  0  0  0  0  0  0  0
    2.5440    4.0640   -9.3890 H   0  0  0  0  0  0  0  0  0  0  0  0
    1.2080    2.6210   -8.5730 C   0  0  0  0  0  0  0  0  0  0  0  0
    0.7530    3.4710   -8.0650 H   0  0  0  0  0  0  0  0  0  0  0  0
    0.6000    2.3470   -9.4350 H   0  0  0  0  0  0  0  0  0  0  0  0
    1.2480    1.4500   -7.6160 C   0  0  0  0  0  0  0  0  0  0  0  0
    2.1300    1.5540   -6.9850 H   0  0  0  0  0  0  0  0  0  0  0  0
    1.3270    0.5330   -8.2000 H   0  0  0  0  0  0  0  0  0  0  0  0
    0.0220    1.3380   -6.7120 N   0  0  0  0  0  4  0  0  0  0  0  0
   -0.0630    2.2000   -6.1370 H   0  0  0  0  0  0  0  0  0  0  0  0
   -0.8300    1.2250   -7.2980 H   0  0  0  0  0  0  0  0  0  0  0  0
    0.1270    0.5130   -6.0880 H   0  0  0  0  0  0  0  0  0  0  0  0
    3.8150    5.3320  -11.1570 N   0  0  0  0  0  0  0  0  0  0  0  0
    4.3440    5.3460  -10.2620 H   0  0  0  0  0  0  0  0  0  0  0  0
    3.4060    6.5700  -11.7600 C   0  0  2  0  0  0  0  0  0  0  0  0
    2.6010    6.3500  -12.4610 H   0  0  0  0  0  0  0  0  0  0  0  0
    4.5830    7.2000  -12.5340 C   0  0  0  0  0  3  0  0  0  0  0  0
    4.3900    7.6850  -13.6440 O   0  0  0  0  0  0  0  0  0  0  0  0
    2.8330    7.5740  -10.6990 C   0  0  0  0  0  0  0  0  0  0  0  0
    1.7520    7.4410  -10.6510 H   0  0  0  0  0  0  0  0  0  0  0  0
    3.2710    7.3350   -9.7300 H   0  0  0  0  0  0  0  0  0  0  0  0
    3.1220    9.0400  -11.0060 C   0  0  0  0  0  0  0  0  0  0  0  0
    2.4190    9.6990  -11.9770 C   0  0  0  0  0  0  0  0  0  0  0  0
    1.6340    9.1740  -12.5200 H   0  0  0  0  0  0  0  0  0  0  0  0
    4.1580    9.7400  -10.3510 C   0  0  0  0  0  0  0  0  0  0  0  0
    4.7460    9.2230   -9.5930 H   0  0  0  0  0  0  0  0  0  0  0  0
    2.7000   11.0760  -12.2930 C   0  0  0  0  0  0  0  0  0  0  0  0
    2.1060   11.5870  -13.0510 H   0  0  0  0  0  0  0  0  0  0  0  0
    4.4620   11.1120  -10.6520 C   0  0  0  0  0  0  0  0  0  0  0  0
    5.2550   11.6380  -10.1200 H   0  0  0  0  0  0  0  0  0  0  0  0
    3.7150   11.7570  -11.6450 C   0  0  0  0  0  0  0  0  0  0  0  0
    3.9630   13.0750  -12.0290 O   0  0  0  0  0  0  0  0  0  0  0  0
    3.3260   13.3360  -12.7410 H   0  0  0  0  0  0  0  0  0  0  0  0
   10.9780    6.3050   -4.9480 N   0  0  0  0  0  2  0  0  0  0  0  0
   10.1880    5.9880   -5.5450 H   0  0  0  0  0  0  0  0  0  0  0  0
   10.7200    6.5580   -3.5270 C   0  0  2  0  0  0  0  0  0  0  0  0
   10.9690    7.6020   -3.3390 H   0  0  0  0  0  0  0  0  0  0  0  0
   11.6250    5.7190   -2.6400 C   0  0  0  0  0  3  0  0  0  0  0  0
   12.2670    6.2920   -1.7970 O   0  0  0  0  0  0  0  0  0  0  0  0
    9.2040    6.4100   -3.1540 C   0  0  0  0  0  0  0  0  0  0  0  0
    8.6640    7.2090   -3.6620 H   0  0  0  0  0  0  0  0  0  0  0  0
    8.8680    5.4460   -3.5360 H   0  0  0  0  0  0  0  0  0  0  0  0
    8.8060    6.4750   -1.6050 C   0  0  0  0  0  0  0  0  0  0  0  0
    9.0730    5.5270   -1.1380 H   0  0  0  0  0  0  0  0  0  0  0  0
    9.3690    7.2810   -1.1350 H   0  0  0  0  0  0  0  0  0  0  0  0
    7.2710    6.7340   -1.3710 C   0  0  0  0  0  0  0  0  0  0  0  0
    6.9860    6.4380   -0.3620 H   0  0  0  0  0  0  0  0  0  0  0  0
    6.6770    6.1740   -2.0940 H   0  0  0  0  0  0  0  0  0  0  0  0
    7.0740    8.1750   -1.5550 N   0  0  0  0  0  0  0  0  0  0  0  0
    7.9010    8.7810   -1.3810 H   0  0  0  0  0  0  0  0  0  0  0  0
    5.9530    8.7950   -1.9200 C   0  0  0  0  0  0  0  0  0  0  0  0
    4.8300    8.1290   -2.1550 N   0  0  0  0  0  4  0  0  0  0  0  0
    4.8090    7.0940   -2.0560 H   0  0  0  0  0  0  0  0  0  0  0  0
    3.9710    8.6420   -2.4390 H   0  0  0  0  0  0  0  0  0  0  0  0
    5.9750   10.1110   -2.0680 N   0  0  0  0  0  0  0  0  0  0  0  0
    6.8550   10.6390   -1.9000 H   0  0  0  0  0  0  0  0  0  0  0  0
    5.1120   10.6170   -2.3520 H   0  0  0  0  0  0  0  0  0  0  0  0
   11.6800   13.6970    2.1500 N   0  0  0  0  0  2  0  0  0  0  0  0
   11.0060   14.3750    1.7400 H   0  0  0  0  0  0  0  0  0  0  0  0
   12.3750   12.7460    1.2760 C   0  0  2  0  0  0  0  0  0  0  0  0
   12.5890   11.8420    1.8460 H   0  0  0  0  0  0  0  0  0  0  0  0
   13.6730   13.4000    0.7880 C   0  0  0  0  0  3  0  0  0  0  0  0
   13.6690   14.3550    0.0170 O   0  0  0  0  0  0  0  0  0  0  0  0
   11.5200   12.3200    0.0890 C   0  0  0  0  0  0  0  0  0  0  0  0
   11.3570   13.1990   -0.5350 H   0  0  0  0  0  0  0  0  0  0  0  0
   12.0810   11.5750   -0.4740 H   0  0  0  0  0  0  0  0  0  0  0  0
   10.1640   11.7270    0.4160 C   0  0  0  0  0  0  0  0  0  0  0  0
   10.0310   10.3500    0.7370 C   0  0  0  0  0  0  0  0  0  0  0  0
   10.9170    9.7150    0.7680 H   0  0  0  0  0  0  0  0  0  0  0  0
    9.0060   12.5450    0.3790 C   0  0  0  0  0  0  0  0  0  0  0  0
    9.1020   13.6000    0.1210 H   0  0  0  0  0  0  0  0  0  0  0  0
    8.7740    9.8000    1.0140 C   0  0  0  0  0  0  0  0  0  0  0  0
    8.6750    8.7420    1.2580 H   0  0  0  0  0  0  0  0  0  0  0  0
    7.7410   12.0170    0.6690 C   0  0  0  0  0  0  0  0  0  0  0  0
    6.8570   12.6550    0.6610 H   0  0  0  0  0  0  0  0  0  0  0  0
    7.6340   10.6360    0.9730 C   0  0  0  0  0  0  0  0  0  0  0  0
    6.3730   10.1120    1.2340 O   0  0  0  0  0  0  0  0  0  0  0  0
    6.4530    9.1450    1.4290 H   0  0  0  0  0  0  0  0  0  0  0  0
    6.8140   13.4770   -8.2220 H   0  0  0  0  0  0  0  0  0  0  0  0
   -8.7350    4.5970   -6.3320 H   0  0  0  0  0  0  0  0  0  0  0  0
  1  2  1  0
  1  3  1  0
  3  4  1  6
  3  5  1  0
  3  7  1  0
  5  6  2  0
  7  8  1  0
  7  9  1  0
  7 10  1  0
 10 11  2  0
 10 12  1  0
 12250  1  0
 13 14  1  0
 13 15  1  0
 15 16  1  6
 15 17  1  0
 15 19  1  0
 17 18  2  0
 17 24  1  0
 19 20  1  0
 19 21  1  0
 19 22  1  0
 22 23  1  0
 24 25  1  0
 24 26  1  0
 26 27  1  1
 26 28  1  0
 26 30  1  0
 28 29  2  0
 28 35  1  0
 30 31  1  0
 30 32  1  0
 30 33  1  0
 33 34  1  0
 35 36  1  0
 35 37  1  0
 37 38  1  6
 37 39  1  0
 37 41  1  0
 39 40  2  0
 41 42  1  0
 41 43  1  0
 41 44  1  0
 44 45  2  0
 44 47  1  0
 45 46  1  0
 45 49  1  0
 47 48  1  0
 47 51  2  0
 49 50  1  0
 49 53  2  0
 51 52  1  0
 51 53  1  0
 53 54  1  0
 55 56  1  0
 55 57  1  0
 57 58  1  6
 57 59  1  0
 57 61  1  0
 59 60  2  0
 61 62  1  0
 61 63  1  0
 61 67  1  0
 63 64  1  0
 63 65  1  0
 63 66  1  0
 67 68  1  0
 67 69  1  0
 67 70  1  0
 71 72  1  0
 71 73  1  0
 73 74  1  1
 73 75  1  0
 73 77  1  0
 75 76  2  0
 77 78  1  6
 77 79  1  0
 77 82  1  0
 79 80  1  0
 79 81  1  0
 79 86  1  0
 82 83  1  0
 82 84  1  0
 82 85  1  0
 86 87  1  0
 86 88  1  0
 86 89  1  0
 90 91  1  0
 90 92  1  0
 92 93  1  6
 92 94  1  0
 92 96  1  0
 94 95  2  0
 96 97  1  0
 96 98  1  0
 96 99  1  0
 99100  1  0
 99101  2  0
100103  2  0
101102  1  0
101105  1  0
103104  1  0
103105  1  0
105251  1  0
106107  1  0
106108  1  0
108109  1  1
108110  1  0
108112  1  0
110111  2  0
112113  1  0
112114  1  0
112118  1  0
114115  1  0
114116  1  0
114117  1  0
118119  1  0
118120  1  0
118121  1  0
122123  1  0
122124  1  0
124125  1  1
124126  1  0
124128  1  0
126127  2  0
126132  1  0
128129  1  0
128130  1  0
128131  1  0
132133  1  0
132134  1  0
134135  1  1
134136  1  0
134138  1  0
136137  2  0
136143  1  0
138139  1  0
138140  1  0
138141  1  0
141142  1  0
143144  1  0
143145  1  0
145146  1  1
145147  1  0
145149  1  0
147148  2  0
149150  1  0
149151  1  0
149152  1  0
152153  1  0
152154  1  0
152158  1  0
154155  1  0
154156  1  0
154157  1  0
158159  1  0
158160  1  0
158161  1  0
162163  1  0
162164  1  0
164165  1  6
164166  1  0
164168  1  0
166167  2  0
166184  1  0
168169  1  0
168170  1  0
168171  1  0
171172  1  0
171173  1  0
171174  1  0
174175  1  0
174176  1  0
174177  1  0
177178  1  0
177179  1  0
177180  1  0
180181  1  0
180182  1  0
180183  1  0
184185  1  0
184186  1  0
186187  1  6
186188  1  0
186190  1  0
188189  2  0
190191  1  0
190192  1  0
190193  1  0
193194  2  0
193196  1  0
194195  1  0
194198  1  0
196197  1  0
196200  2  0
198199  1  0
198202  2  0
200201  1  0
200202  1  0
202203  1  0
203204  1  0
205206  1  0
205207  1  0
207208  1  6
207209  1  0
207211  1  0
209210  2  0
211212  1  0
211213  1  0
211214  1  0
214215  1  0
214216  1  0
214217  1  0
217218  1  0
217219  1  0
217220  1  0
220221  1  0
220222  1  0
222223  2  0
222226  1  0
223224  1  0
223225  1  0
226227  1  0
226228  1  0
229230  1  0
229231  1  0
231232  1  1
231233  1  0
231235  1  0
233234  2  0
235236  1  0
235237  1  0
235238  1  0
238239  2  0
238241  1  0
239240  1  0
239243  1  0
241242  1  0
241245  2  0
243244  1  0
243247  2  0
245246  1  0
245247  1  0
247248  1  0
248249  1  0
M  RAD  8   1   2   5   2  13   2  39   2  55   2  59   2  71   2  75   2
M  RAD  8  90   2  94   2 106   2 110   2 122   2 147   2 162   2 188   2
M  CHG  2 180   1 223   1
M  RAD  4 205   2 209   2 229   2 233   2
M  END
$$$$

     RDKit          3D

251245  0  0  0  0  0  0  0  0999 V2000
    8.2390   15.7430  -10.2460 N   0  0  0  0  0  2  0  0  0  0  0  0
    8.4060   14.8450   -9.7480 H   0  0  0  0  0  0  0  0  0  0  0  0
    7.1270   16.5820   -9.8330 C   0  0  2  0  0  0  0  0  0  0  0  0
    6.5240   16.7530  -10.7240 H   0  0  0  0  0  0  0  0  0  0  0  0
    7.5010   17.9630   -9.3590 C   0  0  0  0  0  3  0  0  0  0  0  0
    8.3130   18.1090   -8.4540 O   0  0  0  0  0  0  0  0  0  0  0  0
    6.3630   15.8620   -8.7680 C   0  0  0  0  0  0  0  0  0  0  0  0
    7.0440   15.5910   -7.9610 H   0  0  0  0  0  0  0  0  0  0  0  0
    5.5850   16.5200   -8.3800 H   0  0  0  0  0  0  0  0  0  0  0  0
    5.7360   14.6350   -9.3040 C   0  0  0  0  0  0  0  0  0  0  0  0
    4.8520   14.7920  -10.1880 O   0  0  0  0  0  0  0  0  0  0  0  0
    6.1520   13.5130   -8.8840 O   0  0  0  0  0  0  0  0  0  0  0  0
    1.6580   16.8130  -11.9920 N   0  0  0  0  0  2  0  0  0  0  0  0
    2.3630   16.6600  -11.2430 H   0  0  0  0  0  0  0  0  0  0  0  0
    0.5750   15.8710  -12.1280 C   0  0  2  0  0  0  0  0  0  0  0  0
    0.1290   15.9910  -13.1150 H   0  0  0  0  0  0  0  0  0  0  0  0
   -0.5220   16.1130  -11.1130 C   0  0  0  0  0  0  0  0  0  0  0  0
   -0.2990   16.7340  -10.0760 O   0  0  0  0  0  0  0  0  0  0  0  0
    1.1300   14.4960  -11.9520 C   0  0  0  0  0  0  0  0  0  0  0  0
    0.3140   13.7740  -11.9180 H   0  0  0  0  0  0  0  0  0  0  0  0
    1.6970   14.4460  -11.0220 H   0  0  0  0  0  0  0  0  0  0  0  0
    1.9940   14.1960  -13.0610 O   0  0  0  0  0  0  0  0  0  0  0  0
    2.3660   13.2850  -12.9510 H   0  0  0  0  0  0  0  0  0  0  0  0
   -1.7070   15.5990  -11.3820 N   0  0  0  0  0  0  0  0  0  0  0  0
   -1.8300   15.0390  -12.2500 H   0  0  0  0  0  0  0  0  0  0  0  0
   -2.8500   15.7940  -10.4960 C   0  0  2  0  0  0  0  0  0  0  0  0
   -2.4940   15.6940   -9.4710 H   0  0  0  0  0  0  0  0  0  0  0  0
   -3.9360   14.7420  -10.7100 C   0  0  0  0  0  0  0  0  0  0  0  0
   -4.1170   14.2150  -11.8220 O   0  0  0  0  0  0  0  0  0  0  0  0
   -3.4310   17.1680  -10.7260 C   0  0  0  0  0  0  0  0  0  0  0  0
   -3.6970   17.2780  -11.7770 H   0  0  0  0  0  0  0  0  0  0  0  0
   -2.6920   17.9230  -10.4590 H   0  0  0  0  0  0  0  0  0  0  0  0
   -4.5930   17.3400   -9.9250 O   0  0  0  0  0  0  0  0  0  0  0  0
   -4.9690   18.2430  -10.0800 H   0  0  0  0  0  0  0  0  0  0  0  0
   -4.6520   14.4140   -9.6350 N   0  0  0  0  0  0  0  0  0  0  0  0
   -4.3590   14.7920   -8.7110 H   0  0  0  0  0  0  0  0  0  0  0  0
   -5.8320   13.5460   -9.6910 C   0  0  2  0  0  0  0  0  0  0  0  0
   -5.6450   12.7780  -10.4420 H   0  0  0  0  0  0  0  0  0  0  0  0
   -7.0770   14.3290  -10.1220 C   0  0  0  0  0  3  0  0  0  0  0  0
   -8.0250   13.7390  -10.5890 O   0  0  0  0  0  0  0  0  0  0  0  0
   -6.0610   12.8570   -8.3570 C   0  0  0  0  0  0  0  0  0  0  0  0
   -5.9730   13.6020   -7.5670 H   0  0  0  0  0  0  0  0  0  0  0  0
   -7.0700   12.4440   -8.3540 H   0  0  0  0  0  0  0  0  0  0  0  0
   -5.0730   11.7210   -8.0610 C   0  0  0  0  0  0  0  0  0  0  0  0
   -4.0720   11.8810   -7.1020 C   0  0  0  0  0  0  0  0  0  0  0  0
   -3.9860   12.8270   -6.5670 H   0  0  0  0  0  0  0  0  0  0  0  0
   -5.1740   10.4980   -8.7080 C   0  0  0  0  0  0  0  0  0  0  0  0
   -5.9560   10.3530   -9.4530 H   0  0  0  0  0  0  0  0  0  0  0  0
   -3.1820   10.8480   -6.8190 C   0  0  0  0  0  0  0  0  0  0  0  0
   -2.4060   10.9870   -6.0660 H   0  0  0  0  0  0  0  0  0  0  0  0
   -4.2920    9.4420   -8.4250 C   0  0  0  0  0  0  0  0  0  0  0  0
   -4.4060    8.4830   -8.9310 H   0  0  0  0  0  0  0  0  0  0  0  0
   -3.2860    9.6220   -7.5080 C   0  0  0  0  0  0  0  0  0  0  0  0
   -2.5720    8.8220   -7.3140 H   0  0  0  0  0  0  0  0  0  0  0  0
   -3.3140    5.0230  -13.0570 N   0  0  0  0  0  2  0  0  0  0  0  0
   -4.1400    5.6150  -12.8370 H   0  0  0  0  0  0  0  0  0  0  0  0
   -2.5170    4.4610  -11.9940 C   0  0  2  0  0  0  0  0  0  0  0  0
   -1.7250    3.8470  -12.4230 H   0  0  0  0  0  0  0  0  0  0  0  0
   -3.4380    3.6400  -11.1070 C   0  0  0  0  0  3  0  0  0  0  0  0
   -4.4710    4.1900  -10.6370 O   0  0  0  0  0  0  0  0  0  0  0  0
   -1.8540    5.5840  -11.1350 C   0  0  0  0  0  0  0  0  0  0  0  0
   -2.6490    6.2450  -10.7900 H   0  0  0  0  0  0  0  0  0  0  0  0
   -1.1450    4.9970   -9.9330 C   0  0  0  0  0  0  0  0  0  0  0  0
   -1.8650    4.4610   -9.3150 H   0  0  0  0  0  0  0  0  0  0  0  0
   -0.3700    4.3090  -10.2700 H   0  0  0  0  0  0  0  0  0  0  0  0
   -0.6920    5.8000   -9.3520 H   0  0  0  0  0  0  0  0  0  0  0  0
   -0.8790    6.3820  -11.9530 C   0  0  0  0  0  0  0  0  0  0  0  0
   -0.0980    5.7220  -12.3300 H   0  0  0  0  0  0  0  0  0  0  0  0
   -1.4020    6.8440  -12.7900 H   0  0  0  0  0  0  0  0  0  0  0  0
   -0.4320    7.1570  -11.3300 H   0  0  0  0  0  0  0  0  0  0  0  0
   -4.5210    2.0210   -7.7850 N   0  0  0  0  0  2  0  0  0  0  0  0
   -5.4600    2.1270   -8.2190 H   0  0  0  0  0  0  0  0  0  0  0  0
   -4.3760    2.2860   -6.3400 C   0  0  2  0  0  0  0  0  0  0  0  0
   -3.3700    1.9630   -6.0710 H   0  0  0  0  0  0  0  0  0  0  0  0
   -5.3740    1.4700   -5.5200 C   0  0  0  0  0  3  0  0  0  0  0  0
   -6.6090    1.7400   -5.5300 O   0  0  0  0  0  0  0  0  0  0  0  0
   -4.4620    3.8040   -5.9870 C   0  0  2  0  0  0  0  0  0  0  0  0
   -5.4400    4.1780   -6.2900 H   0  0  0  0  0  0  0  0  0  0  0  0
   -3.3750    4.5860   -6.7450 C   0  0  0  0  0  0  0  0  0  0  0  0
   -2.4260    4.4330   -6.2310 H   0  0  0  0  0  0  0  0  0  0  0  0
   -3.3090    4.1820   -7.7550 H   0  0  0  0  0  0  0  0  0  0  0  0
   -4.3050    4.0130   -4.4580 C   0  0  0  0  0  0  0  0  0  0  0  0
   -5.1000    3.4810   -3.9360 H   0  0  0  0  0  0  0  0  0  0  0  0
   -3.3370    3.6280   -4.1370 H   0  0  0  0  0  0  0  0  0  0  0  0
   -4.3670    5.0770   -4.2300 H   0  0  0  0  0  0  0  0  0  0  0  0
   -3.6210    6.0930   -6.8510 C   0  0  0  0  0  0  0  0  0  0  0  0
   -4.5590    6.2710   -7.3760 H   0  0  0  0  0  0  0  0  0  0  0  0
   -3.6760    6.5220   -5.8510 H   0  0  0  0  0  0  0  0  0  0  0  0
   -2.8020    6.5560   -7.4010 H   0  0  0  0  0  0  0  0  0  0  0  0
   -7.1030    4.9550  -11.2140 N   0  0  0  0  0  2  0  0  0  0  0  0
   -6.1220    4.6450  -11.0650 H   0  0  0  0  0  0  0  0  0  0  0  0
   -7.3690    6.3930  -11.2260 C   0  0  2  0  0  0  0  0  0  0  0  0
   -8.4260    6.5500  -11.4390 H   0  0  0  0  0  0  0  0  0  0  0  0
   -6.5510    7.1110  -12.3230 C   0  0  0  0  0  3  0  0  0  0  0  0
   -5.3670    6.8340  -12.4820 O   0  0  0  0  0  0  0  0  0  0  0  0
   -6.9990    6.9690   -9.8590 C   0  0  0  0  0  0  0  0  0  0  0  0
   -5.9460    6.7590   -9.6690 H   0  0  0  0  0  0  0  0  0  0  0  0
   -7.1550    8.0480   -9.8840 H   0  0  0  0  0  0  0  0  0  0  0  0
   -7.8100    6.3970   -8.7320 C   0  0  0  0  0  0  0  0  0  0  0  0
   -9.1120    6.7880   -8.4820 N   0  0  0  0  0  0  0  0  0  0  0  0
   -7.5200    5.4300   -7.8250 C   0  0  0  0  0  0  0  0  0  0  0  0
   -6.5730    4.9000   -7.7210 H   0  0  0  0  0  0  0  0  0  0  0  0
   -9.5840    6.0790   -7.4730 C   0  0  0  0  0  0  0  0  0  0  0  0
  -10.5840    6.1660   -7.0470 H   0  0  0  0  0  0  0  0  0  0  0  0
   -8.6430    5.2470   -7.0660 N   0  0  0  0  0  0  0  0  0  0  0  0
   -4.3430    9.9870  -13.8600 N   0  0  0  0  0  2  0  0  0  0  0  0
   -3.9430    9.2670  -14.4950 H   0  0  0  0  0  0  0  0  0  0  0  0
   -3.4660   11.0950  -13.4060 C   0  0  2  0  0  0  0  0  0  0  0  0
   -3.9980   11.6020  -12.6010 H   0  0  0  0  0  0  0  0  0  0  0  0
   -3.1980   12.0700  -14.5610 C   0  0  0  0  0  3  0  0  0  0  0  0
   -2.6940   11.6660  -15.6100 O   0  0  0  0  0  0  0  0  0  0  0  0
   -2.1230   10.5980  -12.8370 C   0  0  0  0  0  0  0  0  0  0  0  0
   -1.6160   10.0380  -13.6230 H   0  0  0  0  0  0  0  0  0  0  0  0
   -1.2160   11.7770  -12.4230 C   0  0  0  0  0  0  0  0  0  0  0  0
   -1.0140   12.4010  -13.2930 H   0  0  0  0  0  0  0  0  0  0  0  0
   -1.7190   12.3690  -11.6580 H   0  0  0  0  0  0  0  0  0  0  0  0
   -0.2780   11.3900  -12.0260 H   0  0  0  0  0  0  0  0  0  0  0  0
   -2.3600    9.6900  -11.6480 C   0  0  0  0  0  0  0  0  0  0  0  0
   -2.8940   10.2400  -10.8730 H   0  0  0  0  0  0  0  0  0  0  0  0
   -2.9540    8.8310  -11.9610 H   0  0  0  0  0  0  0  0  0  0  0  0
   -1.4020    9.3470  -11.2570 H   0  0  0  0  0  0  0  0  0  0  0  0
   10.6540   11.3050   -5.5760 N   0  0  0  0  0  2  0  0  0  0  0  0
   10.3920   12.2850   -5.8030 H   0  0  0  0  0  0  0  0  0  0  0  0
   10.0940   10.6720   -4.3490 C   0  0  2  0  0  0  0  0  0  0  0  0
   10.8680    9.9920   -3.9930 H   0  0  0  0  0  0  0  0  0  0  0  0
    8.8430    9.8410   -4.6350 C   0  0  0  0  0  0  0  0  0  0  0  0
    8.3760    9.1070   -3.7350 O   0  0  0  0  0  0  0  0  0  0  0  0
    9.8210   11.6790   -3.2540 C   0  0  0  0  0  0  0  0  0  0  0  0
   10.7510   12.1790   -2.9810 H   0  0  0  0  0  0  0  0  0  0  0  0
    9.1020   12.4160   -3.6110 H   0  0  0  0  0  0  0  0  0  0  0  0
    9.4140   11.1650   -2.3830 H   0  0  0  0  0  0  0  0  0  0  0  0
    8.3280    9.9240   -5.8760 N   0  0  0  0  0  0  0  0  0  0  0  0
    8.8050   10.5390   -6.5650 H   0  0  0  0  0  0  0  0  0  0  0  0
    7.1420    9.2010   -6.3060 C   0  0  2  0  0  0  0  0  0  0  0  0
    6.4000    9.3360   -5.5190 H   0  0  0  0  0  0  0  0  0  0  0  0
    7.4250    7.7530   -6.4980 C   0  0  0  0  0  0  0  0  0  0  0  0
    8.5700    7.2700   -6.4620 O   0  0  0  0  0  0  0  0  0  0  0  0
    6.6180    9.7450   -7.6390 C   0  0  0  0  0  0  0  0  0  0  0  0
    5.6190    9.3460   -7.8150 H   0  0  0  0  0  0  0  0  0  0  0  0
    7.2840    9.4210   -8.4390 H   0  0  0  0  0  0  0  0  0  0  0  0
    6.5530   11.1910   -7.6390 O   0  0  0  0  0  0  0  0  0  0  0  0
    6.2110   11.5050   -8.5140 H   0  0  0  0  0  0  0  0  0  0  0  0
    6.3550    7.0580   -6.8100 N   0  0  0  0  0  0  0  0  0  0  0  0
    5.4610    7.5640   -6.9720 H   0  0  0  0  0  0  0  0  0  0  0  0
    6.3700    5.6400   -6.9350 C   0  0  2  0  0  0  0  0  0  0  0  0
    7.1620    5.1570   -6.3640 H   0  0  0  0  0  0  0  0  0  0  0  0
    6.5790    5.3360   -8.4090 C   0  0  0  0  0  3  0  0  0  0  0  0
    6.0940    6.0730   -9.2600 O   0  0  0  0  0  0  0  0  0  0  0  0
    5.0220    5.1190   -6.4090 C   0  0  0  0  0  0  0  0  0  0  0  0
    4.2350    5.7010   -6.8870 H   0  0  0  0  0  0  0  0  0  0  0  0
    4.9330    4.0750   -6.7090 H   0  0  0  0  0  0  0  0  0  0  0  0
    4.7900    5.1880   -4.8740 C   0  0  0  0  0  0  0  0  0  0  0  0
    5.0100    6.2120   -4.5710 H   0  0  0  0  0  0  0  0  0  0  0  0
    3.3110    4.7880   -4.5700 C   0  0  0  0  0  0  0  0  0  0  0  0
    2.6380    5.4790   -5.0770 H   0  0  0  0  0  0  0  0  0  0  0  0
    3.1300    3.7740   -4.9260 H   0  0  0  0  0  0  0  0  0  0  0  0
    3.1370    4.8330   -3.4950 H   0  0  0  0  0  0  0  0  0  0  0  0
    5.7270    4.2640   -4.0560 C   0  0  0  0  0  0  0  0  0  0  0  0
    5.5710    3.2290   -4.3610 H   0  0  0  0  0  0  0  0  0  0  0  0
    6.7640    4.5460   -4.2400 H   0  0  0  0  0  0  0  0  0  0  0  0
    5.5030    4.3690   -2.9940 H   0  0  0  0  0  0  0  0  0  0  0  0
    5.3050    3.2970  -10.3550 N   0  0  0  0  0  2  0  0  0  0  0  0
    5.3190    3.2100   -9.3190 H   0  0  0  0  0  0  0  0  0  0  0  0
    4.1120    2.9140  -11.0930 C   0  0  2  0  0  0  0  0  0  0  0  0
    4.3770    2.2010  -11.8730 H   0  0  0  0  0  0  0  0  0  0  0  0
    3.5250    4.1710  -11.7290 C   0  0  0  0  0  0  0  0  0  0  0  0
    2.8290    4.0740  -12.7370 O   0  0  0  0  0  0  0  0  0  0  0  0
    3.0890    2.1810  -10.2000 C   0  0  0  0  0  0  0  0  0  0  0  0
    2.2390    1.8870  -10.8160 H   0  0  0  0  0  0  0  0  0  0  0  0
    3.5630    1.2900   -9.7890 H   0  0  0  0  0  0  0  0  0  0  0  0
    2.5850    3.0260   -9.0590 C   0  0  0  0  0  0  0  0  0  0  0  0
    3.2850    2.9380   -8.2280 H   0  0  0  0  0  0  0  0  0  0  0  0
    2.5440    4.0640   -9.3890 H   0  0  0  0  0  0  0  0  0  0  0  0
    1.2080    2.6210   -8.5730 C   0  0  0  0  0  0  0  0  0  0  0  0
    0.7530    3.4710   -8.0650 H   0  0  0  0  0  0  0  0  0  0  0  0
    0.6000    2.3470   -9.4350 H   0  0  0  0  0  0  0  0  0  0  0  0
    1.2480    1.4500   -7.6160 C   0  0  0  0  0  0  0  0  0  0  0  0
    2.1300    1.5540   -6.9850 H   0  0  0  0  0  0  0  0  0  0  0  0
    1.3270    0.5330   -8.2000 H   0  0  0  0  0  0  0  0  0  0  0  0
    0.0220    1.3380   -6.7120 N   0  0  0  0  0  4  0  0  0  0  0  0
   -0.0630    2.2000   -6.1370 H   0  0  0  0  0  0  0  0  0  0  0  0
   -0.8300    1.2250   -7.2980 H   0  0  0  0  0  0  0  0  0  0  0  0
    0.1270    0.5130   -6.0880 H   0  0  0  0  0  0  0  0  0  0  0  0
    3.8150    5.3320  -11.1570 N   0  0  0  0  0  0  0  0  0  0  0  0
    4.3440    5.3460  -10.2620 H   0  0  0  0  0  0  0  0  0  0  0  0
    3.4060    6.5700  -11.7600 C   0  0  2  0  0  0  0  0  0  0  0  0
    2.6010    6.3500  -12.4610 H   0  0  0  0  0  0  0  0  0  0  0  0
    4.5830    7.2000  -12.5340 C   0  0  0  0  0  3  0  0  0  0  0  0
    4.3900    7.6850  -13.6440 O   0  0  0  0  0  0  0  0  0  0  0  0
    2.8330    7.5740  -10.6990 C   0  0  0  0  0  0  0  0  0  0  0  0
    1.7520    7.4410  -10.6510 H   0  0  0  0  0  0  0  0  0  0  0  0
    3.2710    7.3350   -9.7300 H   0  0  0  0  0  0  0  0  0  0  0  0
    3.1220    9.0400  -11.0060 C   0  0  0  0  0  0  0  0  0  0  0  0
    2.4190    9.6990  -11.9770 C   0  0  0  0  0  0  0  0  0  0  0  0
    1.6340    9.1740  -12.5200 H   0  0  0  0  0  0  0  0  0  0  0  0
    4.1580    9.7400  -10.3510 C   0  0  0  0  0  0  0  0  0  0  0  0
    4.7460    9.2230   -9.5930 H   0  0  0  0  0  0  0  0  0  0  0  0
    2.7000   11.0760  -12.2930 C   0  0  0  0  0  0  0  0  0  0  0  0
    2.1060   11.5870  -13.0510 H   0  0  0  0  0  0  0  0  0  0  0  0
    4.4620   11.1120  -10.6520 C   0  0  0  0  0  0  0  0  0  0  0  0
    5.2550   11.6380  -10.1200 H   0  0  0  0  0  0  0  0  0  0  0  0
    3.7150   11.7570  -11.6450 C   0  0  0  0  0  0  0  0  0  0  0  0
    3.9630   13.0750  -12.0290 O   0  0  0  0  0  0  0  0  0  0  0  0
    3.3260   13.3360  -12.7410 H   0  0  0  0  0  0  0  0  0  0  0  0
   10.9780    6.3050   -4.9480 N   0  0  0  0  0  2  0  0  0  0  0  0
   10.1880    5.9880   -5.5450 H   0  0  0  0  0  0  0  0  0  0  0  0
   10.7200    6.5580   -3.5270 C   0  0  2  0  0  0  0  0  0  0  0  0
   10.9690    7.6020   -3.3390 H   0  0  0  0  0  0  0  0  0  0  0  0
   11.6250    5.7190   -2.6400 C   0  0  0  0  0  3  0  0  0  0  0  0
   12.2670    6.2920   -1.7970 O   0  0  0  0  0  0  0  0  0  0  0  0
    9.2040    6.4100   -3.1540 C   0  0  0  0  0  0  0  0  0  0  0  0
    8.6640    7.2090   -3.6620 H   0  0  0  0  0  0  0  0  0  0  0  0
    8.8680    5.4460   -3.5360 H   0  0  0  0  0  0  0  0  0  0  0  0
    8.8060    6.4750   -1.6050 C   0  0  0  0  0  0  0  0  0  0  0  0
    9.0730    5.5270   -1.1380 H   0  0  0  0  0  0  0  0  0  0  0  0
    9.3690    7.2810   -1.1350 H   0  0  0  0  0  0  0  0  0  0  0  0
    7.2710    6.7340   -1.3710 C   0  0  0  0  0  0  0  0  0  0  0  0
    6.9860    6.4380   -0.3620 H   0  0  0  0  0  0  0  0  0  0  0  0
    6.6770    6.1740   -2.0940 H   0  0  0  0  0  0  0  0  0  0  0  0
    7.0740    8.1750   -1.5550 N   0  0  0  0  0  0  0  0  0  0  0  0
    7.9010    8.7810   -1.3810 H   0  0  0  0  0  0  0  0  0  0  0  0
    5.9530    8.7950   -1.9200 C   0  0  0  0  0  0  0  0  0  0  0  0
    4.8300    8.1290   -2.1550 N   0  0  0  0  0  4  0  0  0  0  0  0
    4.8090    7.0940   -2.0560 H   0  0  0  0  0  0  0  0  0  0  0  0
    3.9710    8.6420   -2.4390 H   0  0  0  0  0  0  0  0  0  0  0  0
    5.9750   10.1110   -2.0680 N   0  0  0  0  0  0  0  0  0  0  0  0
    6.8550   10.6390   -1.9000 H   0  0  0  0  0  0  0  0  0  0  0  0
    5.1120   10.6170   -2.3520 H   0  0  0  0  0  0  0  0  0  0  0  0
   11.6800   13.6970    2.1500 N   0  0  0  0  0  2  0  0  0  0  0  0
   11.0060   14.3750    1.7400 H   0  0  0  0  0  0  0  0  0  0  0  0
   12.3750   12.7460    1.2760 C   0  0  2  0  0  0  0  0  0  0  0  0
   12.5890   11.8420    1.8460 H   0  0  0  0  0  0  0  0  0  0  0  0
   13.6730   13.4000    0.7880 C   0  0  0  0  0  3  0  0  0  0  0  0
   13.6690   14.3550    0.0170 O   0  0  0  0  0  0  0  0  0  0  0  0
   11.5200   12.3200    0.0890 C   0  0  0  0  0  0  0  0  0  0  0  0
   11.3570   13.1990   -0.5350 H   0  0  0  0  0  0  0  0  0  0  0  0
   12.0810   11.5750   -0.4740 H   0  0  0  0  0  0  0  0  0  0  0  0
   10.1640   11.7270    0.4160 C   0  0  0  0  0  0  0  0  0  0  0  0
   10.0310   10.3500    0.7370 C   0  0  0  0  0  0  0  0  0  0  0  0
   10.9170    9.7150    0.7680 H   0  0  0  0  0  0  0  0  0  0  0  0
    9.0060   12.5450    0.3790 C   0  0  0  0  0  0  0  0  0  0  0  0
    9.1020   13.6000    0.1210 H   0  0  0  0  0  0  0  0  0  0  0  0
    8.7740    9.8000    1.0140 C   0  0  0  0  0  0  0  0  0  0  0  0
    8.6750    8.7420    1.2580 H   0  0  0  0  0  0  0  0  0  0  0  0
    7.7410   12.0170    0.6690 C   0  0  0  0  0  0  0  0  0  0  0  0
    6.8570   12.6550    0.6610 H   0  0  0  0  0  0  0  0  0  0  0  0
    7.6340   10.6360    0.9730 C   0  0  0  0  0  0  0  0  0  0  0  0
    6.3730   10.1120    1.2340 O   0  0  0  0  0  0  0  0  0  0  0  0
    6.4530    9.1450    1.4290 H   0  0  0  0  0  0  0  0  0  0  0  0
    6.8140   13.4770   -8.2220 H   0  0  0  0  0  0  0  0  0  0  0  0
   -8.7350    4.5970   -6.3320 H   0  0  0  0  0  0  0  0  0  0  0  0
  1  2  1  0
  1  3  1  0
  3  4  1  6
  3  5  1  0
  3  7  1  0
  5  6  2  0
  7  8  1  0
  7  9  1  0
  7 10  1  0
 10 11  2  0
 10 12  1  0
 12250  1  0
 13 14  1  0
 13 15  1  0
 15 16  1  6
 15 17  1  0
 15 19  1  0
 17 18  2  0
 17 24  1  0
 19 20  1  0
 19 21  1  0
 19 22  1  0
 22 23  1  0
 24 25  1  0
 24 26  1  0
 26 27  1  1
 26 28  1  0
 26 30  1  0
 28 29  2  0
 28 35  1  0
 30 31  1  0
 30 32  1  0
 30 33  1  0
 33 34  1  0
 35 36  1  0
 35 37  1  0
 37 38  1  6
 37 39  1  0
 37 41  1  0
 39 40  2  0
 41 42  1  0
 41 43  1  0
 41 44  1  0
 44 45  2  0
 44 47  1  0
 45 46  1  0
 45 49  1  0
 47 48  1  0
 47 51  2  0
 49 50  1  0
 49 53  2  0
 51 52  1  0
 51 53  1  0
 53 54  1  0
 55 56  1  0
 55 57  1  0
 57 58  1  6
 57 59  1  0
 57 61  1  0
 59 60  2  0
 61 62  1  0
 61 63  1  0
 61 67  1  0
 63 64  1  0
 63 65  1  0
 63 66  1  0
 67 68  1  0
 67 69  1  0
 67 70  1  0
 71 72  1  0
 71 73  1  0
 73 74  1  1
 73 75  1  0
 73 77  1  0
 75 76  2  0
 77 78  1  6
 77 79  1  0
 77 82  1  0
 79 80  1  0
 79 81  1  0
 79 86  1  0
 82 83  1  0
 82 84  1  0
 82 85  1  0
 86 87  1  0
 86 88  1  0
 86 89  1  0
 90 91  1  0
 90 92  1  0
 92 93  1  6
 92 94  1  0
 92 96  1  0
 94 95  2  0
 96 97  1  0
 96 98  1  0
 96 99  1  0
 99100  1  0
 99101  2  0
100103  2  0
101102  1  0
101105  1  0
103104  1  0
103105  1  0
105251  1  0
106107  1  0
106108  1  0
108109  1  1
108110  1  0
108112  1  0
110111  2  0
112113  1  0
112114  1  0
112118  1  0
114115  1  0
114116  1  0
114117  1  0
118119  1  0
118120  1  0
118121  1  0
122123  1  0
122124  1  0
124125  1  1
124126  1  0
124128  1  0
126127  2  0
126132  1  0
128129  1  0
128130  1  0
128131  1  0
132133  1  0
132134  1  0
134135  1  1
134136  1  0
134138  1  0
136137  2  0
136143  1  0
138139  1  0
138140  1  0
138141  1  0
141142  1  0
143144  1  0
143145  1  0
145146  1  1
145147  1  0
145149  1  0
147148  2  0
149150  1  0
149151  1  0
149152  1  0
152153  1  0
152154  1  0
152158  1  0
154155  1  0
154156  1  0
154157  1  0
158159  1  0
158160  1  0
158161  1  0
162163  1  0
162164  1  0
164165  1  6
164166  1  0
164168  1  0
166167  2  0
166184  1  0
168169  1  0
168170  1  0
168171  1  0
171172  1  0
171173  1  0
171174  1  0
174175  1  0
174176  1  0
174177  1  0
177178  1  0
177179  1  0
177180  1  0
180181  1  0
180182  1  0
180183  1  0
184185  1  0
184186  1  0
186187  1  6
186188  1  0
186190  1  0
188189  2  0
190191  1  0
190192  1  0
190193  1  0
193194  2  0
193196  1  0
194195  1  0
194198  1  0
196197  1  0
196200  2  0
198199  1  0
198202  2  0
200201  1  0
200202  1  0
202203  1  0
203204  1  0
205206  1  0
205207  1  0
207208  1  6
207209  1  0
207211  1  0
209210  2  0
211212  1  0
211213  1  0
211214  1  0
214215  1  0
214216  1  0
214217  1  0
217218  1  0
217219  1  0
217220  1  0
220221  1  0
220222  1  0
222223  2  0
222226  1  0
223224  1  0
223225  1  0
226227  1  0
226228  1  0
229230  1  0
229231  1  0
231232  1  1
231233  1  0
231235  1  0
233234  2  0
235236  1  0
235237  1  0
235238  1  0
238239  2  0
238241  1  0
239240  1  0
239243  1  0
241242  1  0
241245  2  0
243244  1  0
243247  2  0
245246  1  0
245247  1  0
247248  1  0
248249  1  0
M  RAD  8   1   2   5   2  13   2  39   2  55   2  59   2  71   2  75   2
M  RAD  8  90   2  94   2 106   2 110   2 122   2 147   2 162   2 188   2
M  CHG  2 180   1 223   1
M  RAD  4 205   2 209   2 229   2 233   2
M  END
$$$$

     RDKit          3D

251245  0  0  0  0  0  0  0  0999 V2000
    8.2390   15.7430  -10.2460 N   0  0  0  0  0  2  0  0  0  0  0  0
    8.4060   14.8450   -9.7480 H   0  0  0  0  0  0  0  0  0  0  0  0
    7.1270   16.5820   -9.8330 C   0  0  2  0  0  0  0  0  0  0  0  0
    6.5240   16.7530  -10.7240 H   0  0  0  0  0  0  0  0  0  0  0  0
    7.5010   17.9630   -9.3590 C   0  0  0  0  0  3  0  0  0  0  0  0
    8.3130   18.1090   -8.4540 O   0  0  0  0  0  0  0  0  0  0  0  0
    6.3630   15.8620   -8.7680 C   0  0  0  0  0  0  0  0  0  0  0  0
    7.0440   15.5910   -7.9610 H   0  0  0  0  0  0  0  0  0  0  0  0
    5.5850   16.5200   -8.3800 H   0  0  0  0  0  0  0  0  0  0  0  0
    5.7360   14.6350   -9.3040 C   0  0  0  0  0  0  0  0  0  0  0  0
    4.8520   14.7920  -10.1880 O   0  0  0  0  0  0  0  0  0  0  0  0
    6.1520   13.5130   -8.8840 O   0  0  0  0  0  0  0  0  0  0  0  0
    1.6580   16.8130  -11.9920 N   0  0  0  0  0  2  0  0  0  0  0  0
    2.3630   16.6600  -11.2430 H   0  0  0  0  0  0  0  0  0  0  0  0
    0.5750   15.8710  -12.1280 C   0  0  2  0  0  0  0  0  0  0  0  0
    0.1290   15.9910  -13.1150 H   0  0  0  0  0  0  0  0  0  0  0  0
   -0.5220   16.1130  -11.1130 C   0  0  0  0  0  0  0  0  0  0  0  0
   -0.2990   16.7340  -10.0760 O   0  0  0  0  0  0  0  0  0  0  0  0
    1.1300   14.4960  -11.9520 C   0  0  0  0  0  0  0  0  0  0  0  0
    0.3140   13.7740  -11.9180 H   0  0  0  0  0  0  0  0  0  0  0  0
    1.6970   14.4460  -11.0220 H   0  0  0  0  0  0  0  0  0  0  0  0
    1.9940   14.1960  -13.0610 O   0  0  0  0  0  0  0  0  0  0  0  0
    2.3660   13.2850  -12.9510 H   0  0  0  0  0  0  0  0  0  0  0  0
   -1.7070   15.5990  -11.3820 N   0  0  0  0  0  0  0  0  0  0  0  0
   -1.8300   15.0390  -12.2500 H   0  0  0  0  0  0  0  0  0  0  0  0
   -2.8500   15.7940  -10.4960 C   0  0  2  0  0  0  0  0  0  0  0  0
   -2.4940   15.6940   -9.4710 H   0  0  0  0  0  0  0  0  0  0  0  0
   -3.9360   14.7420  -10.7100 C   0  0  0  0  0  0  0  0  0  0  0  0
   -4.1170   14.2150  -11.8220 O   0  0  0  0  0  0  0  0  0  0  0  0
   -3.4310   17.1680  -10.7260 C   0  0  0  0  0  0  0  0  0  0  0  0
   -3.6970   17.2780  -11.7770 H   0  0  0  0  0  0  0  0  0  0  0  0
   -2.6920   17.9230  -10.4590 H   0  0  0  0  0  0  0  0  0  0  0  0
   -4.5930   17.3400   -9.9250 O   0  0  0  0  0  0  0  0  0  0  0  0
   -4.9690   18.2430  -10.0800 H   0  0  0  0  0  0  0  0  0  0  0  0
   -4.6520   14.4140   -9.6350 N   0  0  0  0  0  0  0  0  0  0  0  0
   -4.3590   14.7920   -8.7110 H   0  0  0  0  0  0  0  0  0  0  0  0
   -5.8320   13.5460   -9.6910 C   0  0  2  0  0  0  0  0  0  0  0  0
   -5.6450   12.7780  -10.4420 H   0  0  0  0  0  0  0  0  0  0  0  0
   -7.0770   14.3290  -10.1220 C   0  0  0  0  0  3  0  0  0  0  0  0
   -8.0250   13.7390  -10.5890 O   0  0  0  0  0  0  0  0  0  0  0  0
   -6.0610   12.8570   -8.3570 C   0  0  0  0  0  0  0  0  0  0  0  0
   -5.9730   13.6020   -7.5670 H   0  0  0  0  0  0  0  0  0  0  0  0
   -7.0700   12.4440   -8.3540 H   0  0  0  0  0  0  0  0  0  0  0  0
   -5.0730   11.7210   -8.0610 C   0  0  0  0  0  0  0  0  0  0  0  0
   -4.0720   11.8810   -7.1020 C   0  0  0  0  0  0  0  0  0  0  0  0
   -3.9860   12.8270   -6.5670 H   0  0  0  0  0  0  0  0  0  0  0  0
   -5.1740   10.4980   -8.7080 C   0  0  0  0  0  0  0  0  0  0  0  0
   -5.9560   10.3530   -9.4530 H   0  0  0  0  0  0  0  0  0  0  0  0
   -3.1820   10.8480   -6.8190 C   0  0  0  0  0  0  0  0  0  0  0  0
   -2.4060   10.9870   -6.0660 H   0  0  0  0  0  0  0  0  0  0  0  0
   -4.2920    9.4420   -8.4250 C   0  0  0  0  0  0  0  0  0  0  0  0
   -4.4060    8.4830   -8.9310 H   0  0  0  0  0  0  0  0  0  0  0  0
   -3.2860    9.6220   -7.5080 C   0  0  0  0  0  0  0  0  0  0  0  0
   -2.5720    8.8220   -7.3140 H   0  0  0  0  0  0  0  0  0  0  0  0
   -3.3140    5.0230  -13.0570 N   0  0  0  0  0  2  0  0  0  0  0  0
   -4.1400    5.6150  -12.8370 H   0  0  0  0  0  0  0  0  0  0  0  0
   -2.5170    4.4610  -11.9940 C   0  0  2  0  0  0  0  0  0  0  0  0
   -1.7250    3.8470  -12.4230 H   0  0  0  0  0  0  0  0  0  0  0  0
   -3.4380    3.6400  -11.1070 C   0  0  0  0  0  3  0  0  0  0  0  0
   -4.4710    4.1900  -10.6370 O   0  0  0  0  0  0  0  0  0  0  0  0
   -1.8540    5.5840  -11.1350 C   0  0  0  0  0  0  0  0  0  0  0  0
   -2.6490    6.2450  -10.7900 H   0  0  0  0  0  0  0  0  0  0  0  0
   -1.1450    4.9970   -9.9330 C   0  0  0  0  0  0  0  0  0  0  0  0
   -1.8650    4.4610   -9.3150 H   0  0  0  0  0  0  0  0  0  0  0  0
   -0.3700    4.3090  -10.2700 H   0  0  0  0  0  0  0  0  0  0  0  0
   -0.6920    5.8000   -9.3520 H   0  0  0  0  0  0  0  0  0  0  0  0
   -0.8790    6.3820  -11.9530 C   0  0  0  0  0  0  0  0  0  0  0  0
   -0.0980    5.7220  -12.3300 H   0  0  0  0  0  0  0  0  0  0  0  0
   -1.4020    6.8440  -12.7900 H   0  0  0  0  0  0  0  0  0  0  0  0
   -0.4320    7.1570  -11.3300 H   0  0  0  0  0  0  0  0  0  0  0  0
   -4.5210    2.0210   -7.7850 N   0  0  0  0  0  2  0  0  0  0  0  0
   -5.4600    2.1270   -8.2190 H   0  0  0  0  0  0  0  0  0  0  0  0
   -4.3760    2.2860   -6.3400 C   0  0  2  0  0  0  0  0  0  0  0  0
   -3.3700    1.9630   -6.0710 H   0  0  0  0  0  0  0  0  0  0  0  0
   -5.3740    1.4700   -5.5200 C   0  0  0  0  0  3  0  0  0  0  0  0
   -6.6090    1.7400   -5.5300 O   0  0  0  0  0  0  0  0  0  0  0  0
   -4.4620    3.8040   -5.9870 C   0  0  2  0  0  0  0  0  0  0  0  0
   -5.4400    4.1780   -6.2900 H   0  0  0  0  0  0  0  0  0  0  0  0
   -3.3750    4.5860   -6.7450 C   0  0  0  0  0  0  0  0  0  0  0  0
   -2.4260    4.4330   -6.2310 H   0  0  0  0  0  0  0  0  0  0  0  0
   -3.3090    4.1820   -7.7550 H   0  0  0  0  0  0  0  0  0  0  0  0
   -4.3050    4.0130   -4.4580 C   0  0  0  0  0  0  0  0  0  0  0  0
   -5.1000    3.4810   -3.9360 H   0  0  0  0  0  0  0  0  0  0  0  0
   -3.3370    3.6280   -4.1370 H   0  0  0  0  0  0  0  0  0  0  0  0
   -4.3670    5.0770   -4.2300 H   0  0  0  0  0  0  0  0  0  0  0  0
   -3.6210    6.0930   -6.8510 C   0  0  0  0  0  0  0  0  0  0  0  0
   -4.5590    6.2710   -7.3760 H   0  0  0  0  0  0  0  0  0  0  0  0
   -3.6760    6.5220   -5.8510 H   0  0  0  0  0  0  0  0  0  0  0  0
   -2.8020    6.5560   -7.4010 H   0  0  0  0  0  0  0  0  0  0  0  0
   -7.1030    4.9550  -11.2140 N   0  0  0  0  0  2  0  0  0  0  0  0
   -6.1220    4.6450  -11.0650 H   0  0  0  0  0  0  0  0  0  0  0  0
   -7.3690    6.3930  -11.2260 C   0  0  2  0  0  0  0  0  0  0  0  0
   -8.4260    6.5500  -11.4390 H   0  0  0  0  0  0  0  0  0  0  0  0
   -6.5510    7.1110  -12.3230 C   0  0  0  0  0  3  0  0  0  0  0  0
   -5.3670    6.8340  -12.4820 O   0  0  0  0  0  0  0  0  0  0  0  0
   -6.9990    6.9690   -9.8590 C   0  0  0  0  0  0  0  0  0  0  0  0
   -5.9460    6.7590   -9.6690 H   0  0  0  0  0  0  0  0  0  0  0  0
   -7.1550    8.0480   -9.8840 H   0  0  0  0  0  0  0  0  0  0  0  0
   -7.8100    6.3970   -8.7320 C   0  0  0  0  0  0  0  0  0  0  0  0
   -9.1120    6.7880   -8.4820 N   0  0  0  0  0  0  0  0  0  0  0  0
   -7.5200    5.4300   -7.8250 C   0  0  0  0  0  0  0  0  0  0  0  0
   -6.5730    4.9000   -7.7210 H   0  0  0  0  0  0  0  0  0  0  0  0
   -9.5840    6.0790   -7.4730 C   0  0  0  0  0  0  0  0  0  0  0  0
  -10.5840    6.1660   -7.0470 H   0  0  0  0  0  0  0  0  0  0  0  0
   -8.6430    5.2470   -7.0660 N   0  0  0  0  0  0  0  0  0  0  0  0
   -4.3430    9.9870  -13.8600 N   0  0  0  0  0  2  0  0  0  0  0  0
   -3.9430    9.2670  -14.4950 H   0  0  0  0  0  0  0  0  0  0  0  0
   -3.4660   11.0950  -13.4060 C   0  0  2  0  0  0  0  0  0  0  0  0
   -3.9980   11.6020  -12.6010 H   0  0  0  0  0  0  0  0  0  0  0  0
   -3.1980   12.0700  -14.5610 C   0  0  0  0  0  3  0  0  0  0  0  0
   -2.6940   11.6660  -15.6100 O   0  0  0  0  0  0  0  0  0  0  0  0
   -2.1230   10.5980  -12.8370 C   0  0  0  0  0  0  0  0  0  0  0  0
   -1.6160   10.0380  -13.6230 H   0  0  0  0  0  0  0  0  0  0  0  0
   -1.2160   11.7770  -12.4230 C   0  0  0  0  0  0  0  0  0  0  0  0
   -1.0140   12.4010  -13.2930 H   0  0  0  0  0  0  0  0  0  0  0  0
   -1.7190   12.3690  -11.6580 H   0  0  0  0  0  0  0  0  0  0  0  0
   -0.2780   11.3900  -12.0260 H   0  0  0  0  0  0  0  0  0  0  0  0
   -2.3600    9.6900  -11.6480 C   0  0  0  0  0  0  0  0  0  0  0  0
   -2.8940   10.2400  -10.8730 H   0  0  0  0  0  0  0  0  0  0  0  0
   -2.9540    8.8310  -11.9610 H   0  0  0  0  0  0  0  0  0  0  0  0
   -1.4020    9.3470  -11.2570 H   0  0  0  0  0  0  0  0  0  0  0  0
   10.6540   11.3050   -5.5760 N   0  0  0  0  0  2  0  0  0  0  0  0
   10.3920   12.2850   -5.8030 H   0  0  0  0  0  0  0  0  0  0  0  0
   10.0940   10.6720   -4.3490 C   0  0  2  0  0  0  0  0  0  0  0  0
   10.8680    9.9920   -3.9930 H   0  0  0  0  0  0  0  0  0  0  0  0
    8.8430    9.8410   -4.6350 C   0  0  0  0  0  0  0  0  0  0  0  0
    8.3760    9.1070   -3.7350 O   0  0  0  0  0  0  0  0  0  0  0  0
    9.8210   11.6790   -3.2540 C   0  0  0  0  0  0  0  0  0  0  0  0
   10.7510   12.1790   -2.9810 H   0  0  0  0  0  0  0  0  0  0  0  0
    9.1020   12.4160   -3.6110 H   0  0  0  0  0  0  0  0  0  0  0  0
    9.4140   11.1650   -2.3830 H   0  0  0  0  0  0  0  0  0  0  0  0
    8.3280    9.9240   -5.8760 N   0  0  0  0  0  0  0  0  0  0  0  0
    8.8050   10.5390   -6.5650 H   0  0  0  0  0  0  0  0  0  0  0  0
    7.1420    9.2010   -6.3060 C   0  0  2  0  0  0  0  0  0  0  0  0
    6.4000    9.3360   -5.5190 H   0  0  0  0  0  0  0  0  0  0  0  0
    7.4250    7.7530   -6.4980 C   0  0  0  0  0  0  0  0  0  0  0  0
    8.5700    7.2700   -6.4620 O   0  0  0  0  0  0  0  0  0  0  0  0
    6.6180    9.7450   -7.6390 C   0  0  0  0  0  0  0  0  0  0  0  0
    5.6190    9.3460   -7.8150 H   0  0  0  0  0  0  0  0  0  0  0  0
    7.2840    9.4210   -8.4390 H   0  0  0  0  0  0  0  0  0  0  0  0
    6.5530   11.1910   -7.6390 O   0  0  0  0  0  0  0  0  0  0  0  0
    6.2110   11.5050   -8.5140 H   0  0  0  0  0  0  0  0  0  0  0  0
    6.3550    7.0580   -6.8100 N   0  0  0  0  0  0  0  0  0  0  0  0
    5.4610    7.5640   -6.9720 H   0  0  0  0  0  0  0  0  0  0  0  0
    6.3700    5.6400   -6.9350 C   0  0  2  0  0  0  0  0  0  0  0  0
    7.1620    5.1570   -6.3640 H   0  0  0  0  0  0  0  0  0  0  0  0
    6.5790    5.3360   -8.4090 C   0  0  0  0  0  3  0  0  0  0  0  0
    6.0940    6.0730   -9.2600 O   0  0  0  0  0  0  0  0  0  0  0  0
    5.0220    5.1190   -6.4090 C   0  0  0  0  0  0  0  0  0  0  0  0
    4.2350    5.7010   -6.8870 H   0  0  0  0  0  0  0  0  0  0  0  0
    4.9330    4.0750   -6.7090 H   0  0  0  0  0  0  0  0  0  0  0  0
    4.7900    5.1880   -4.8740 C   0  0  0  0  0  0  0  0  0  0  0  0
    5.0100    6.2120   -4.5710 H   0  0  0  0  0  0  0  0  0  0  0  0
    3.3110    4.7880   -4.5700 C   0  0  0  0  0  0  0  0  0  0  0  0
    2.6380    5.4790   -5.0770 H   0  0  0  0  0  0  0  0  0  0  0  0
    3.1300    3.7740   -4.9260 H   0  0  0  0  0  0  0  0  0  0  0  0
    3.1370    4.8330   -3.4950 H   0  0  0  0  0  0  0  0  0  0  0  0
    5.7270    4.2640   -4.0560 C   0  0  0  0  0  0  0  0  0  0  0  0
    5.5710    3.2290   -4.3610 H   0  0  0  0  0  0  0  0  0  0  0  0
    6.7640    4.5460   -4.2400 H   0  0  0  0  0  0  0  0  0  0  0  0
    5.5030    4.3690   -2.9940 H   0  0  0  0  0  0  0  0  0  0  0  0
    5.3050    3.2970  -10.3550 N   0  0  0  0  0  2  0  0  0  0  0  0
    5.3190    3.2100   -9.3190 H   0  0  0  0  0  0  0  0  0  0  0  0
    4.1120    2.9140  -11.0930 C   0  0  2  0  0  0  0  0  0  0  0  0
    4.3770    2.2010  -11.8730 H   0  0  0  0  0  0  0  0  0  0  0  0
    3.5250    4.1710  -11.7290 C   0  0  0  0  0  0  0  0  0  0  0  0
    2.8290    4.0740  -12.7370 O   0  0  0  0  0  0  0  0  0  0  0  0
    3.0890    2.1810  -10.2000 C   0  0  0  0  0  0  0  0  0  0  0  0
    2.2390    1.8870  -10.8160 H   0  0  0  0  0  0  0  0  0  0  0  0
    3.5630    1.2900   -9.7890 H   0  0  0  0  0  0  0  0  0  0  0  0
    2.5850    3.0260   -9.0590 C   0  0  0  0  0  0  0  0  0  0  0  0
    3.2850    2.9380   -8.2280 H   0  0  0  0  0  0  0  0  0  0  0  0
    2.5440    4.0640   -9.3890 H   0  0  0  0  0  0  0  0  0  0  0  0
    1.2080    2.6210   -8.5730 C   0  0  0  0  0  0  0  0  0  0  0  0
    0.7530    3.4710   -8.0650 H   0  0  0  0  0  0  0  0  0  0  0  0
    0.6000    2.3470   -9.4350 H   0  0  0  0  0  0  0  0  0  0  0  0
    1.2480    1.4500   -7.6160 C   0  0  0  0  0  0  0  0  0  0  0  0
    2.1300    1.5540   -6.9850 H   0  0  0  0  0  0  0  0  0  0  0  0
    1.3270    0.5330   -8.2000 H   0  0  0  0  0  0  0  0  0  0  0  0
    0.0220    1.3380   -6.7120 N   0  0  0  0  0  4  0  0  0  0  0  0
   -0.0630    2.2000   -6.1370 H   0  0  0  0  0  0  0  0  0  0  0  0
   -0.8300    1.2250   -7.2980 H   0  0  0  0  0  0  0  0  0  0  0  0
    0.1270    0.5130   -6.0880 H   0  0  0  0  0  0  0  0  0  0  0  0
    3.8150    5.3320  -11.1570 N   0  0  0  0  0  0  0  0  0  0  0  0
    4.3440    5.3460  -10.2620 H   0  0  0  0  0  0  0  0  0  0  0  0
    3.4060    6.5700  -11.7600 C   0  0  2  0  0  0  0  0  0  0  0  0
    2.6010    6.3500  -12.4610 H   0  0  0  0  0  0  0  0  0  0  0  0
    4.5830    7.2000  -12.5340 C   0  0  0  0  0  3  0  0  0  0  0  0
    4.3900    7.6850  -13.6440 O   0  0  0  0  0  0  0  0  0  0  0  0
    2.8330    7.5740  -10.6990 C   0  0  0  0  0  0  0  0  0  0  0  0
    1.7520    7.4410  -10.6510 H   0  0  0  0  0  0  0  0  0  0  0  0
    3.2710    7.3350   -9.7300 H   0  0  0  0  0  0  0  0  0  0  0  0
    3.1220    9.0400  -11.0060 C   0  0  0  0  0  0  0  0  0  0  0  0
    2.4190    9.6990  -11.9770 C   0  0  0  0  0  0  0  0  0  0  0  0
    1.6340    9.1740  -12.5200 H   0  0  0  0  0  0  0  0  0  0  0  0
    4.1580    9.7400  -10.3510 C   0  0  0  0  0  0  0  0  0  0  0  0
    4.7460    9.2230   -9.5930 H   0  0  0  0  0  0  0  0  0  0  0  0
    2.7000   11.0760  -12.2930 C   0  0  0  0  0  0  0  0  0  0  0  0
    2.1060   11.5870  -13.0510 H   0  0  0  0  0  0  0  0  0  0  0  0
    4.4620   11.1120  -10.6520 C   0  0  0  0  0  0  0  0  0  0  0  0
    5.2550   11.6380  -10.1200 H   0  0  0  0  0  0  0  0  0  0  0  0
    3.7150   11.7570  -11.6450 C   0  0  0  0  0  0  0  0  0  0  0  0
    3.9630   13.0750  -12.0290 O   0  0  0  0  0  0  0  0  0  0  0  0
    3.3260   13.3360  -12.7410 H   0  0  0  0  0  0  0  0  0  0  0  0
   10.9780    6.3050   -4.9480 N   0  0  0  0  0  2  0  0  0  0  0  0
   10.1880    5.9880   -5.5450 H   0  0  0  0  0  0  0  0  0  0  0  0
   10.7200    6.5580   -3.5270 C   0  0  2  0  0  0  0  0  0  0  0  0
   10.9690    7.6020   -3.3390 H   0  0  0  0  0  0  0  0  0  0  0  0
   11.6250    5.7190   -2.6400 C   0  0  0  0  0  3  0  0  0  0  0  0
   12.2670    6.2920   -1.7970 O   0  0  0  0  0  0  0  0  0  0  0  0
    9.2040    6.4100   -3.1540 C   0  0  0  0  0  0  0  0  0  0  0  0
    8.6640    7.2090   -3.6620 H   0  0  0  0  0  0  0  0  0  0  0  0
    8.8680    5.4460   -3.5360 H   0  0  0  0  0  0  0  0  0  0  0  0
    8.8060    6.4750   -1.6050 C   0  0  0  0  0  0  0  0  0  0  0  0
    9.0730    5.5270   -1.1380 H   0  0  0  0  0  0  0  0  0  0  0  0
    9.3690    7.2810   -1.1350 H   0  0  0  0  0  0  0  0  0  0  0  0
    7.2710    6.7340   -1.3710 C   0  0  0  0  0  0  0  0  0  0  0  0
    6.9860    6.4380   -0.3620 H   0  0  0  0  0  0  0  0  0  0  0  0
    6.6770    6.1740   -2.0940 H   0  0  0  0  0  0  0  0  0  0  0  0
    7.0740    8.1750   -1.5550 N   0  0  0  0  0  0  0  0  0  0  0  0
    7.9010    8.7810   -1.3810 H   0  0  0  0  0  0  0  0  0  0  0  0
    5.9530    8.7950   -1.9200 C   0  0  0  0  0  0  0  0  0  0  0  0
    4.8300    8.1290   -2.1550 N   0  0  0  0  0  4  0  0  0  0  0  0
    4.8090    7.0940   -2.0560 H   0  0  0  0  0  0  0  0  0  0  0  0
    3.9710    8.6420   -2.4390 H   0  0  0  0  0  0  0  0  0  0  0  0
    5.9750   10.1110   -2.0680 N   0  0  0  0  0  0  0  0  0  0  0  0
    6.8550   10.6390   -1.9000 H   0  0  0  0  0  0  0  0  0  0  0  0
    5.1120   10.6170   -2.3520 H   0  0  0  0  0  0  0  0  0  0  0  0
   11.6800   13.6970    2.1500 N   0  0  0  0  0  2  0  0  0  0  0  0
   11.0060   14.3750    1.7400 H   0  0  0  0  0  0  0  0  0  0  0  0
   12.3750   12.7460    1.2760 C   0  0  2  0  0  0  0  0  0  0  0  0
   12.5890   11.8420    1.8460 H   0  0  0  0  0  0  0  0  0  0  0  0
   13.6730   13.4000    0.7880 C   0  0  0  0  0  3  0  0  0  0  0  0
   13.6690   14.3550    0.0170 O   0  0  0  0  0  0  0  0  0  0  0  0
   11.5200   12.3200    0.0890 C   0  0  0  0  0  0  0  0  0  0  0  0
   11.3570   13.1990   -0.5350 H   0  0  0  0  0  0  0  0  0  0  0  0
   12.0810   11.5750   -0.4740 H   0  0  0  0  0  0  0  0  0  0  0  0
   10.1640   11.7270    0.4160 C   0  0  0  0  0  0  0  0  0  0  0  0
   10.0310   10.3500    0.7370 C   0  0  0  0  0  0  0  0  0  0  0  0
   10.9170    9.7150    0.7680 H   0  0  0  0  0  0  0  0  0  0  0  0
    9.0060   12.5450    0.3790 C   0  0  0  0  0  0  0  0  0  0  0  0
    9.1020   13.6000    0.1210 H   0  0  0  0  0  0  0  0  0  0  0  0
    8.7740    9.8000    1.0140 C   0  0  0  0  0  0  0  0  0  0  0  0
    8.6750    8.7420    1.2580 H   0  0  0  0  0  0  0  0  0  0  0  0
    7.7410   12.0170    0.6690 C   0  0  0  0  0  0  0  0  0  0  0  0
    6.8570   12.6550    0.6610 H   0  0  0  0  0  0  0  0  0  0  0  0
    7.6340   10.6360    0.9730 C   0  0  0  0  0  0  0  0  0  0  0  0
    6.3730   10.1120    1.2340 O   0  0  0  0  0  0  0  0  0  0  0  0
    6.4530    9.1450    1.4290 H   0  0  0  0  0  0  0  0  0  0  0  0
    6.8140   13.4770   -8.2220 H   0  0  0  0  0  0  0  0  0  0  0  0
   -8.7350    4.5970   -6.3320 H   0  0  0  0  0  0  0  0  0  0  0  0
  1  2  1  0
  1  3  1  0
  3  4  1  6
  3  5  1  0
  3  7  1  0
  5  6  2  0
  7  8  1  0
  7  9  1  0
  7 10  1  0
 10 11  2  0
 10 12  1  0
 12250  1  0
 13 14  1  0
 13 15  1  0
 15 16  1  6
 15 17  1  0
 15 19  1  0
 17 18  2  0
 17 24  1  0
 19 20  1  0
 19 21  1  0
 19 22  1  0
 22 23  1  0
 24 25  1  0
 24 26  1  0
 26 27  1  1
 26 28  1  0
 26 30  1  0
 28 29  2  0
 28 35  1  0
 30 31  1  0
 30 32  1  0
 30 33  1  0
 33 34  1  0
 35 36  1  0
 35 37  1  0
 37 38  1  6
 37 39  1  0
 37 41  1  0
 39 40  2  0
 41 42  1  0
 41 43  1  0
 41 44  1  0
 44 45  2  0
 44 47  1  0
 45 46  1  0
 45 49  1  0
 47 48  1  0
 47 51  2  0
 49 50  1  0
 49 53  2  0
 51 52  1  0
 51 53  1  0
 53 54  1  0
 55 56  1  0
 55 57  1  0
 57 58  1  6
 57 59  1  0
 57 61  1  0
 59 60  2  0
 61 62  1  0
 61 63  1  0
 61 67  1  0
 63 64  1  0
 63 65  1  0
 63 66  1  0
 67 68  1  0
 67 69  1  0
 67 70  1  0
 71 72  1  0
 71 73  1  0
 73 74  1  1
 73 75  1  0
 73 77  1  0
 75 76  2  0
 77 78  1  6
 77 79  1  0
 77 82  1  0
 79 80  1  0
 79 81  1  0
 79 86  1  0
 82 83  1  0
 82 84  1  0
 82 85  1  0
 86 87  1  0
 86 88  1  0
 86 89  1  0
 90 91  1  0
 90 92  1  0
 92 93  1  6
 92 94  1  0
 92 96  1  0
 94 95  2  0
 96 97  1  0
 96 98  1  0
 96 99  1  0
 99100  1  0
 99101  2  0
100103  2  0
101102  1  0
101105  1  0
103104  1  0
103105  1  0
105251  1  0
106107  1  0
106108  1  0
108109  1  1
108110  1  0
108112  1  0
110111  2  0
112113  1  0
112114  1  0
112118  1  0
114115  1  0
114116  1  0
114117  1  0
118119  1  0
118120  1  0
118121  1  0
122123  1  0
122124  1  0
124125  1  1
124126  1  0
124128  1  0
126127  2  0
126132  1  0
128129  1  0
128130  1  0
128131  1  0
132133  1  0
132134  1  0
134135  1  1
134136  1  0
134138  1  0
136137  2  0
136143  1  0
138139  1  0
138140  1  0
138141  1  0
141142  1  0
143144  1  0
143145  1  0
145146  1  1
145147  1  0
145149  1  0
147148  2  0
149150  1  0
149151  1  0
149152  1  0
152153  1  0
152154  1  0
152158  1  0
154155  1  0
154156  1  0
154157  1  0
158159  1  0
158160  1  0
158161  1  0
162163  1  0
162164  1  0
164165  1  6
164166  1  0
164168  1  0
166167  2  0
166184  1  0
168169  1  0
168170  1  0
168171  1  0
171172  1  0
171173  1  0
171174  1  0
174175  1  0
174176  1  0
174177  1  0
177178  1  0
177179  1  0
177180  1  0
180181  1  0
180182  1  0
180183  1  0
184185  1  0
184186  1  0
186187  1  6
186188  1  0
186190  1  0
188189  2  0
190191  1  0
190192  1  0
190193  1  0
193194  2  0
193196  1  0
194195  1  0
194198  1  0
196197  1  0
196200  2  0
198199  1  0
198202  2  0
200201  1  0
200202  1  0
202203  1  0
203204  1  0
205206  1  0
205207  1  0
207208  1  6
207209  1  0
207211  1  0
209210  2  0
211212  1  0
211213  1  0
211214  1  0
214215  1  0
214216  1  0
214217  1  0
217218  1  0
217219  1  0
217220  1  0
220221  1  0
220222  1  0
222223  2  0
222226  1  0
223224  1  0
223225  1  0
226227  1  0
226228  1  0
229230  1  0
229231  1  0
231232  1  1
231233  1  0
231235  1  0
233234  2  0
235236  1  0
235237  1  0
235238  1  0
238239  2  0
238241  1  0
239240  1  0
239243  1  0
241242  1  0
241245  2  0
243244  1  0
243247  2  0
245246  1  0
245247  1  0
247248  1  0
248249  1  0
M  RAD  8   1   2   5   2  13   2  39   2  55   2  59   2  71   2  75   2
M  RAD  8  90   2  94   2 106   2 110   2 122   2 147   2 162   2 188   2
M  CHG  2 180   1 223   1
M  RAD  4 205   2 209   2 229   2 233   2
M  END
$$$$

     RDKit          3D

251245  0  0  0  0  0  0  0  0999 V2000
    8.2390   15.7430  -10.2460 N   0  0  0  0  0  2  0  0  0  0  0  0
    8.4060   14.8450   -9.7480 H   0  0  0  0  0  0  0  0  0  0  0  0
    7.1270   16.5820   -9.8330 C   0  0  2  0  0  0  0  0  0  0  0  0
    6.5240   16.7530  -10.7240 H   0  0  0  0  0  0  0  0  0  0  0  0
    7.5010   17.9630   -9.3590 C   0  0  0  0  0  3  0  0  0  0  0  0
    8.3130   18.1090   -8.4540 O   0  0  0  0  0  0  0  0  0  0  0  0
    6.3630   15.8620   -8.7680 C   0  0  0  0  0  0  0  0  0  0  0  0
    7.0440   15.5910   -7.9610 H   0  0  0  0  0  0  0  0  0  0  0  0
    5.5850   16.5200   -8.3800 H   0  0  0  0  0  0  0  0  0  0  0  0
    5.7360   14.6350   -9.3040 C   0  0  0  0  0  0  0  0  0  0  0  0
    4.8520   14.7920  -10.1880 O   0  0  0  0  0  0  0  0  0  0  0  0
    6.1520   13.5130   -8.8840 O   0  0  0  0  0  0  0  0  0  0  0  0
    1.6580   16.8130  -11.9920 N   0  0  0  0  0  2  0  0  0  0  0  0
    2.3630   16.6600  -11.2430 H   0  0  0  0  0  0  0  0  0  0  0  0
    0.5750   15.8710  -12.1280 C   0  0  2  0  0  0  0  0  0  0  0  0
    0.1290   15.9910  -13.1150 H   0  0  0  0  0  0  0  0  0  0  0  0
   -0.5220   16.1130  -11.1130 C   0  0  0  0  0  0  0  0  0  0  0  0
   -0.2990   16.7340  -10.0760 O   0  0  0  0  0  0  0  0  0  0  0  0
    1.1300   14.4960  -11.9520 C   0  0  0  0  0  0  0  0  0  0  0  0
    0.3140   13.7740  -11.9180 H   0  0  0  0  0  0  0  0  0  0  0  0
    1.6970   14.4460  -11.0220 H   0  0  0  0  0  0  0  0  0  0  0  0
    1.9940   14.1960  -13.0610 O   0  0  0  0  0  0  0  0  0  0  0  0
    2.3660   13.2850  -12.9510 H   0  0  0  0  0  0  0  0  0  0  0  0
   -1.7070   15.5990  -11.3820 N   0  0  0  0  0  0  0  0  0  0  0  0
   -1.8300   15.0390  -12.2500 H   0  0  0  0  0  0  0  0  0  0  0  0
   -2.8500   15.7940  -10.4960 C   0  0  2  0  0  0  0  0  0  0  0  0
   -2.4940   15.6940   -9.4710 H   0  0  0  0  0  0  0  0  0  0  0  0
   -3.9360   14.7420  -10.7100 C   0  0  0  0  0  0  0  0  0  0  0  0
   -4.1170   14.2150  -11.8220 O   0  0  0  0  0  0  0  0  0  0  0  0
   -3.4310   17.1680  -10.7260 C   0  0  0  0  0  0  0  0  0  0  0  0
   -3.6970   17.2780  -11.7770 H   0  0  0  0  0  0  0  0  0  0  0  0
   -2.6920   17.9230  -10.4590 H   0  0  0  0  0  0  0  0  0  0  0  0
   -4.5930   17.3400   -9.9250 O   0  0  0  0  0  0  0  0  0  0  0  0
   -4.9690   18.2430  -10.0800 H   0  0  0  0  0  0  0  0  0  0  0  0
   -4.6520   14.4140   -9.6350 N   0  0  0  0  0  0  0  0  0  0  0  0
   -4.3590   14.7920   -8.7110 H   0  0  0  0  0  0  0  0  0  0  0  0
   -5.8320   13.5460   -9.6910 C   0  0  2  0  0  0  0  0  0  0  0  0
   -5.6450   12.7780  -10.4420 H   0  0  0  0  0  0  0  0  0  0  0  0
   -7.0770   14.3290  -10.1220 C   0  0  0  0  0  3  0  0  0  0  0  0
   -8.0250   13.7390  -10.5890 O   0  0  0  0  0  0  0  0  0  0  0  0
   -6.0610   12.8570   -8.3570 C   0  0  0  0  0  0  0  0  0  0  0  0
   -5.9730   13.6020   -7.5670 H   0  0  0  0  0  0  0  0  0  0  0  0
   -7.0700   12.4440   -8.3540 H   0  0  0  0  0  0  0  0  0  0  0  0
   -5.0730   11.7210   -8.0610 C   0  0  0  0  0  0  0  0  0  0  0  0
   -4.0720   11.8810   -7.1020 C   0  0  0  0  0  0  0  0  0  0  0  0
   -3.9860   12.8270   -6.5670 H   0  0  0  0  0  0  0  0  0  0  0  0
   -5.1740   10.4980   -8.7080 C   0  0  0  0  0  0  0  0  0  0  0  0
   -5.9560   10.3530   -9.4530 H   0  0  0  0  0  0  0  0  0  0  0  0
   -3.1820   10.8480   -6.8190 C   0  0  0  0  0  0  0  0  0  0  0  0
   -2.4060   10.9870   -6.0660 H   0  0  0  0  0  0  0  0  0  0  0  0
   -4.2920    9.4420   -8.4250 C   0  0  0  0  0  0  0  0  0  0  0  0
   -4.4060    8.4830   -8.9310 H   0  0  0  0  0  0  0  0  0  0  0  0
   -3.2860    9.6220   -7.5080 C   0  0  0  0  0  0  0  0  0  0  0  0
   -2.5720    8.8220   -7.3140 H   0  0  0  0  0  0  0  0  0  0  0  0
   -3.3140    5.0230  -13.0570 N   0  0  0  0  0  2  0  0  0  0  0  0
   -4.1400    5.6150  -12.8370 H   0  0  0  0  0  0  0  0  0  0  0  0
   -2.5170    4.4610  -11.9940 C   0  0  2  0  0  0  0  0  0  0  0  0
   -1.7250    3.8470  -12.4230 H   0  0  0  0  0  0  0  0  0  0  0  0
   -3.4380    3.6400  -11.1070 C   0  0  0  0  0  3  0  0  0  0  0  0
   -4.4710    4.1900  -10.6370 O   0  0  0  0  0  0  0  0  0  0  0  0
   -1.8540    5.5840  -11.1350 C   0  0  0  0  0  0  0  0  0  0  0  0
   -2.6490    6.2450  -10.7900 H   0  0  0  0  0  0  0  0  0  0  0  0
   -1.1450    4.9970   -9.9330 C   0  0  0  0  0  0  0  0  0  0  0  0
   -1.8650    4.4610   -9.3150 H   0  0  0  0  0  0  0  0  0  0  0  0
   -0.3700    4.3090  -10.2700 H   0  0  0  0  0  0  0  0  0  0  0  0
   -0.6920    5.8000   -9.3520 H   0  0  0  0  0  0  0  0  0  0  0  0
   -0.8790    6.3820  -11.9530 C   0  0  0  0  0  0  0  0  0  0  0  0
   -0.0980    5.7220  -12.3300 H   0  0  0  0  0  0  0  0  0  0  0  0
   -1.4020    6.8440  -12.7900 H   0  0  0  0  0  0  0  0  0  0  0  0
   -0.4320    7.1570  -11.3300 H   0  0  0  0  0  0  0  0  0  0  0  0
   -4.5210    2.0210   -7.7850 N   0  0  0  0  0  2  0  0  0  0  0  0
   -5.4600    2.1270   -8.2190 H   0  0  0  0  0  0  0  0  0  0  0  0
   -4.3760    2.2860   -6.3400 C   0  0  2  0  0  0  0  0  0  0  0  0
   -3.3700    1.9630   -6.0710 H   0  0  0  0  0  0  0  0  0  0  0  0
   -5.3740    1.4700   -5.5200 C   0  0  0  0  0  3  0  0  0  0  0  0
   -6.6090    1.7400   -5.5300 O   0  0  0  0  0  0  0  0  0  0  0  0
   -4.4620    3.8040   -5.9870 C   0  0  2  0  0  0  0  0  0  0  0  0
   -5.4400    4.1780   -6.2900 H   0  0  0  0  0  0  0  0  0  0  0  0
   -3.3750    4.5860   -6.7450 C   0  0  0  0  0  0  0  0  0  0  0  0
   -2.4260    4.4330   -6.2310 H   0  0  0  0  0  0  0  0  0  0  0  0
   -3.3090    4.1820   -7.7550 H   0  0  0  0  0  0  0  0  0  0  0  0
   -4.3050    4.0130   -4.4580 C   0  0  0  0  0  0  0  0  0  0  0  0
   -5.1000    3.4810   -3.9360 H   0  0  0  0  0  0  0  0  0  0  0  0
   -3.3370    3.6280   -4.1370 H   0  0  0  0  0  0  0  0  0  0  0  0
   -4.3670    5.0770   -4.2300 H   0  0  0  0  0  0  0  0  0  0  0  0
   -3.6210    6.0930   -6.8510 C   0  0  0  0  0  0  0  0  0  0  0  0
   -4.5590    6.2710   -7.3760 H   0  0  0  0  0  0  0  0  0  0  0  0
   -3.6760    6.5220   -5.8510 H   0  0  0  0  0  0  0  0  0  0  0  0
   -2.8020    6.5560   -7.4010 H   0  0  0  0  0  0  0  0  0  0  0  0
   -7.1030    4.9550  -11.2140 N   0  0  0  0  0  2  0  0  0  0  0  0
   -6.1220    4.6450  -11.0650 H   0  0  0  0  0  0  0  0  0  0  0  0
   -7.3690    6.3930  -11.2260 C   0  0  2  0  0  0  0  0  0  0  0  0
   -8.4260    6.5500  -11.4390 H   0  0  0  0  0  0  0  0  0  0  0  0
   -6.5510    7.1110  -12.3230 C   0  0  0  0  0  3  0  0  0  0  0  0
   -5.3670    6.8340  -12.4820 O   0  0  0  0  0  0  0  0  0  0  0  0
   -6.9990    6.9690   -9.8590 C   0  0  0  0  0  0  0  0  0  0  0  0
   -5.9460    6.7590   -9.6690 H   0  0  0  0  0  0  0  0  0  0  0  0
   -7.1550    8.0480   -9.8840 H   0  0  0  0  0  0  0  0  0  0  0  0
   -7.8100    6.3970   -8.7320 C   0  0  0  0  0  0  0  0  0  0  0  0
   -9.1120    6.7880   -8.4820 N   0  0  0  0  0  0  0  0  0  0  0  0
   -7.5200    5.4300   -7.8250 C   0  0  0  0  0  0  0  0  0  0  0  0
   -6.5730    4.9000   -7.7210 H   0  0  0  0  0  0  0  0  0  0  0  0
   -9.5840    6.0790   -7.4730 C   0  0  0  0  0  0  0  0  0  0  0  0
  -10.5840    6.1660   -7.0470 H   0  0  0  0  0  0  0  0  0  0  0  0
   -8.6430    5.2470   -7.0660 N   0  0  0  0  0  0  0  0  0  0  0  0
   -4.3430    9.9870  -13.8600 N   0  0  0  0  0  2  0  0  0  0  0  0
   -3.9430    9.2670  -14.4950 H   0  0  0  0  0  0  0  0  0  0  0  0
   -3.4660   11.0950  -13.4060 C   0  0  2  0  0  0  0  0  0  0  0  0
   -3.9980   11.6020  -12.6010 H   0  0  0  0  0  0  0  0  0  0  0  0
   -3.1980   12.0700  -14.5610 C   0  0  0  0  0  3  0  0  0  0  0  0
   -2.6940   11.6660  -15.6100 O   0  0  0  0  0  0  0  0  0  0  0  0
   -2.1230   10.5980  -12.8370 C   0  0  0  0  0  0  0  0  0  0  0  0
   -1.6160   10.0380  -13.6230 H   0  0  0  0  0  0  0  0  0  0  0  0
   -1.2160   11.7770  -12.4230 C   0  0  0  0  0  0  0  0  0  0  0  0
   -1.0140   12.4010  -13.2930 H   0  0  0  0  0  0  0  0  0  0  0  0
   -1.7190   12.3690  -11.6580 H   0  0  0  0  0  0  0  0  0  0  0  0
   -0.2780   11.3900  -12.0260 H   0  0  0  0  0  0  0  0  0  0  0  0
   -2.3600    9.6900  -11.6480 C   0  0  0  0  0  0  0  0  0  0  0  0
   -2.8940   10.2400  -10.8730 H   0  0  0  0  0  0  0  0  0  0  0  0
   -2.9540    8.8310  -11.9610 H   0  0  0  0  0  0  0  0  0  0  0  0
   -1.4020    9.3470  -11.2570 H   0  0  0  0  0  0  0  0  0  0  0  0
   10.6540   11.3050   -5.5760 N   0  0  0  0  0  2  0  0  0  0  0  0
   10.3920   12.2850   -5.8030 H   0  0  0  0  0  0  0  0  0  0  0  0
   10.0940   10.6720   -4.3490 C   0  0  2  0  0  0  0  0  0  0  0  0
   10.8680    9.9920   -3.9930 H   0  0  0  0  0  0  0  0  0  0  0  0
    8.8430    9.8410   -4.6350 C   0  0  0  0  0  0  0  0  0  0  0  0
    8.3760    9.1070   -3.7350 O   0  0  0  0  0  0  0  0  0  0  0  0
    9.8210   11.6790   -3.2540 C   0  0  0  0  0  0  0  0  0  0  0  0
   10.7510   12.1790   -2.9810 H   0  0  0  0  0  0  0  0  0  0  0  0
    9.1020   12.4160   -3.6110 H   0  0  0  0  0  0  0  0  0  0  0  0
    9.4140   11.1650   -2.3830 H   0  0  0  0  0  0  0  0  0  0  0  0
    8.3280    9.9240   -5.8760 N   0  0  0  0  0  0  0  0  0  0  0  0
    8.8050   10.5390   -6.5650 H   0  0  0  0  0  0  0  0  0  0  0  0
    7.1420    9.2010   -6.3060 C   0  0  2  0  0  0  0  0  0  0  0  0
    6.4000    9.3360   -5.5190 H   0  0  0  0  0  0  0  0  0  0  0  0
    7.4250    7.7530   -6.4980 C   0  0  0  0  0  0  0  0  0  0  0  0
    8.5700    7.2700   -6.4620 O   0  0  0  0  0  0  0  0  0  0  0  0
    6.6180    9.7450   -7.6390 C   0  0  0  0  0  0  0  0  0  0  0  0
    5.6190    9.3460   -7.8150 H   0  0  0  0  0  0  0  0  0  0  0  0
    7.2840    9.4210   -8.4390 H   0  0  0  0  0  0  0  0  0  0  0  0
    6.5530   11.1910   -7.6390 O   0  0  0  0  0  0  0  0  0  0  0  0
    6.2110   11.5050   -8.5140 H   0  0  0  0  0  0  0  0  0  0  0  0
    6.3550    7.0580   -6.8100 N   0  0  0  0  0  0  0  0  0  0  0  0
    5.4610    7.5640   -6.9720 H   0  0  0  0  0  0  0  0  0  0  0  0
    6.3700    5.6400   -6.9350 C   0  0  2  0  0  0  0  0  0  0  0  0
    7.1620    5.1570   -6.3640 H   0  0  0  0  0  0  0  0  0  0  0  0
    6.5790    5.3360   -8.4090 C   0  0  0  0  0  3  0  0  0  0  0  0
    6.0940    6.0730   -9.2600 O   0  0  0  0  0  0  0  0  0  0  0  0
    5.0220    5.1190   -6.4090 C   0  0  0  0  0  0  0  0  0  0  0  0
    4.2350    5.7010   -6.8870 H   0  0  0  0  0  0  0  0  0  0  0  0
    4.9330    4.0750   -6.7090 H   0  0  0  0  0  0  0  0  0  0  0  0
    4.7900    5.1880   -4.8740 C   0  0  0  0  0  0  0  0  0  0  0  0
    5.0100    6.2120   -4.5710 H   0  0  0  0  0  0  0  0  0  0  0  0
    3.3110    4.7880   -4.5700 C   0  0  0  0  0  0  0  0  0  0  0  0
    2.6380    5.4790   -5.0770 H   0  0  0  0  0  0  0  0  0  0  0  0
    3.1300    3.7740   -4.9260 H   0  0  0  0  0  0  0  0  0  0  0  0
    3.1370    4.8330   -3.4950 H   0  0  0  0  0  0  0  0  0  0  0  0
    5.7270    4.2640   -4.0560 C   0  0  0  0  0  0  0  0  0  0  0  0
    5.5710    3.2290   -4.3610 H   0  0  0  0  0  0  0  0  0  0  0  0
    6.7640    4.5460   -4.2400 H   0  0  0  0  0  0  0  0  0  0  0  0
    5.5030    4.3690   -2.9940 H   0  0  0  0  0  0  0  0  0  0  0  0
    5.3050    3.2970  -10.3550 N   0  0  0  0  0  2  0  0  0  0  0  0
    5.3190    3.2100   -9.3190 H   0  0  0  0  0  0  0  0  0  0  0  0
    4.1120    2.9140  -11.0930 C   0  0  2  0  0  0  0  0  0  0  0  0
    4.3770    2.2010  -11.8730 H   0  0  0  0  0  0  0  0  0  0  0  0
    3.5250    4.1710  -11.7290 C   0  0  0  0  0  0  0  0  0  0  0  0
    2.8290    4.0740  -12.7370 O   0  0  0  0  0  0  0  0  0  0  0  0
    3.0890    2.1810  -10.2000 C   0  0  0  0  0  0  0  0  0  0  0  0
    2.2390    1.8870  -10.8160 H   0  0  0  0  0  0  0  0  0  0  0  0
    3.5630    1.2900   -9.7890 H   0  0  0  0  0  0  0  0  0  0  0  0
    2.5850    3.0260   -9.0590 C   0  0  0  0  0  0  0  0  0  0  0  0
    3.2850    2.9380   -8.2280 H   0  0  0  0  0  0  0  0  0  0  0  0
    2.5440    4.0640   -9.3890 H   0  0  0  0  0  0  0  0  0  0  0  0
    1.2080    2.6210   -8.5730 C   0  0  0  0  0  0  0  0  0  0  0  0
    0.7530    3.4710   -8.0650 H   0  0  0  0  0  0  0  0  0  0  0  0
    0.6000    2.3470   -9.4350 H   0  0  0  0  0  0  0  0  0  0  0  0
    1.2480    1.4500   -7.6160 C   0  0  0  0  0  0  0  0  0  0  0  0
    2.1300    1.5540   -6.9850 H   0  0  0  0  0  0  0  0  0  0  0  0
    1.3270    0.5330   -8.2000 H   0  0  0  0  0  0  0  0  0  0  0  0
    0.0220    1.3380   -6.7120 N   0  0  0  0  0  4  0  0  0  0  0  0
   -0.0630    2.2000   -6.1370 H   0  0  0  0  0  0  0  0  0  0  0  0
   -0.8300    1.2250   -7.2980 H   0  0  0  0  0  0  0  0  0  0  0  0
    0.1270    0.5130   -6.0880 H   0  0  0  0  0  0  0  0  0  0  0  0
    3.8150    5.3320  -11.1570 N   0  0  0  0  0  0  0  0  0  0  0  0
    4.3440    5.3460  -10.2620 H   0  0  0  0  0  0  0  0  0  0  0  0
    3.4060    6.5700  -11.7600 C   0  0  2  0  0  0  0  0  0  0  0  0
    2.6010    6.3500  -12.4610 H   0  0  0  0  0  0  0  0  0  0  0  0
    4.5830    7.2000  -12.5340 C   0  0  0  0  0  3  0  0  0  0  0  0
    4.3900    7.6850  -13.6440 O   0  0  0  0  0  0  0  0  0  0  0  0
    2.8330    7.5740  -10.6990 C   0  0  0  0  0  0  0  0  0  0  0  0
    1.7520    7.4410  -10.6510 H   0  0  0  0  0  0  0  0  0  0  0  0
    3.2710    7.3350   -9.7300 H   0  0  0  0  0  0  0  0  0  0  0  0
    3.1220    9.0400  -11.0060 C   0  0  0  0  0  0  0  0  0  0  0  0
    2.4190    9.6990  -11.9770 C   0  0  0  0  0  0  0  0  0  0  0  0
    1.6340    9.1740  -12.5200 H   0  0  0  0  0  0  0  0  0  0  0  0
    4.1580    9.7400  -10.3510 C   0  0  0  0  0  0  0  0  0  0  0  0
    4.7460    9.2230   -9.5930 H   0  0  0  0  0  0  0  0  0  0  0  0
    2.7000   11.0760  -12.2930 C   0  0  0  0  0  0  0  0  0  0  0  0
    2.1060   11.5870  -13.0510 H   0  0  0  0  0  0  0  0  0  0  0  0
    4.4620   11.1120  -10.6520 C   0  0  0  0  0  0  0  0  0  0  0  0
    5.2550   11.6380  -10.1200 H   0  0  0  0  0  0  0  0  0  0  0  0
    3.7150   11.7570  -11.6450 C   0  0  0  0  0  0  0  0  0  0  0  0
    3.9630   13.0750  -12.0290 O   0  0  0  0  0  0  0  0  0  0  0  0
    3.3260   13.3360  -12.7410 H   0  0  0  0  0  0  0  0  0  0  0  0
   10.9780    6.3050   -4.9480 N   0  0  0  0  0  2  0  0  0  0  0  0
   10.1880    5.9880   -5.5450 H   0  0  0  0  0  0  0  0  0  0  0  0
   10.7200    6.5580   -3.5270 C   0  0  2  0  0  0  0  0  0  0  0  0
   10.9690    7.6020   -3.3390 H   0  0  0  0  0  0  0  0  0  0  0  0
   11.6250    5.7190   -2.6400 C   0  0  0  0  0  3  0  0  0  0  0  0
   12.2670    6.2920   -1.7970 O   0  0  0  0  0  0  0  0  0  0  0  0
    9.2040    6.4100   -3.1540 C   0  0  0  0  0  0  0  0  0  0  0  0
    8.6640    7.2090   -3.6620 H   0  0  0  0  0  0  0  0  0  0  0  0
    8.8680    5.4460   -3.5360 H   0  0  0  0  0  0  0  0  0  0  0  0
    8.8060    6.4750   -1.6050 C   0  0  0  0  0  0  0  0  0  0  0  0
    9.0730    5.5270   -1.1380 H   0  0  0  0  0  0  0  0  0  0  0  0
    9.3690    7.2810   -1.1350 H   0  0  0  0  0  0  0  0  0  0  0  0
    7.2710    6.7340   -1.3710 C   0  0  0  0  0  0  0  0  0  0  0  0
    6.9860    6.4380   -0.3620 H   0  0  0  0  0  0  0  0  0  0  0  0
    6.6770    6.1740   -2.0940 H   0  0  0  0  0  0  0  0  0  0  0  0
    7.0740    8.1750   -1.5550 N   0  0  0  0  0  0  0  0  0  0  0  0
    7.9010    8.7810   -1.3810 H   0  0  0  0  0  0  0  0  0  0  0  0
    5.9530    8.7950   -1.9200 C   0  0  0  0  0  0  0  0  0  0  0  0
    4.8300    8.1290   -2.1550 N   0  0  0  0  0  4  0  0  0  0  0  0
    4.8090    7.0940   -2.0560 H   0  0  0  0  0  0  0  0  0  0  0  0
    3.9710    8.6420   -2.4390 H   0  0  0  0  0  0  0  0  0  0  0  0
    5.9750   10.1110   -2.0680 N   0  0  0  0  0  0  0  0  0  0  0  0
    6.8550   10.6390   -1.9000 H   0  0  0  0  0  0  0  0  0  0  0  0
    5.1120   10.6170   -2.3520 H   0  0  0  0  0  0  0  0  0  0  0  0
   11.6800   13.6970    2.1500 N   0  0  0  0  0  2  0  0  0  0  0  0
   11.0060   14.3750    1.7400 H   0  0  0  0  0  0  0  0  0  0  0  0
   12.3750   12.7460    1.2760 C   0  0  2  0  0  0  0  0  0  0  0  0
   12.5890   11.8420    1.8460 H   0  0  0  0  0  0  0  0  0  0  0  0
   13.6730   13.4000    0.7880 C   0  0  0  0  0  3  0  0  0  0  0  0
   13.6690   14.3550    0.0170 O   0  0  0  0  0  0  0  0  0  0  0  0
   11.5200   12.3200    0.0890 C   0  0  0  0  0  0  0  0  0  0  0  0
   11.3570   13.1990   -0.5350 H   0  0  0  0  0  0  0  0  0  0  0  0
   12.0810   11.5750   -0.4740 H   0  0  0  0  0  0  0  0  0  0  0  0
   10.1640   11.7270    0.4160 C   0  0  0  0  0  0  0  0  0  0  0  0
   10.0310   10.3500    0.7370 C   0  0  0  0  0  0  0  0  0  0  0  0
   10.9170    9.7150    0.7680 H   0  0  0  0  0  0  0  0  0  0  0  0
    9.0060   12.5450    0.3790 C   0  0  0  0  0  0  0  0  0  0  0  0
    9.1020   13.6000    0.1210 H   0  0  0  0  0  0  0  0  0  0  0  0
    8.7740    9.8000    1.0140 C   0  0  0  0  0  0  0  0  0  0  0  0
    8.6750    8.7420    1.2580 H   0  0  0  0  0  0  0  0  0  0  0  0
    7.7410   12.0170    0.6690 C   0  0  0  0  0  0  0  0  0  0  0  0
    6.8570   12.6550    0.6610 H   0  0  0  0  0  0  0  0  0  0  0  0
    7.6340   10.6360    0.9730 C   0  0  0  0  0  0  0  0  0  0  0  0
    6.3730   10.1120    1.2340 O   0  0  0  0  0  0  0  0  0  0  0  0
    6.4530    9.1450    1.4290 H   0  0  0  0  0  0  0  0  0  0  0  0
    6.8140   13.4770   -8.2220 H   0  0  0  0  0  0  0  0  0  0  0  0
   -8.7350    4.5970   -6.3320 H   0  0  0  0  0  0  0  0  0  0  0  0
  1  2  1  0
  1  3  1  0
  3  4  1  6
  3  5  1  0
  3  7  1  0
  5  6  2  0
  7  8  1  0
  7  9  1  0
  7 10  1  0
 10 11  2  0
 10 12  1  0
 12250  1  0
 13 14  1  0
 13 15  1  0
 15 16  1  6
 15 17  1  0
 15 19  1  0
 17 18  2  0
 17 24  1  0
 19 20  1  0
 19 21  1  0
 19 22  1  0
 22 23  1  0
 24 25  1  0
 24 26  1  0
 26 27  1  1
 26 28  1  0
 26 30  1  0
 28 29  2  0
 28 35  1  0
 30 31  1  0
 30 32  1  0
 30 33  1  0
 33 34  1  0
 35 36  1  0
 35 37  1  0
 37 38  1  6
 37 39  1  0
 37 41  1  0
 39 40  2  0
 41 42  1  0
 41 43  1  0
 41 44  1  0
 44 45  2  0
 44 47  1  0
 45 46  1  0
 45 49  1  0
 47 48  1  0
 47 51  2  0
 49 50  1  0
 49 53  2  0
 51 52  1  0
 51 53  1  0
 53 54  1  0
 55 56  1  0
 55 57  1  0
 57 58  1  6
 57 59  1  0
 57 61  1  0
 59 60  2  0
 61 62  1  0
 61 63  1  0
 61 67  1  0
 63 64  1  0
 63 65  1  0
 63 66  1  0
 67 68  1  0
 67 69  1  0
 67 70  1  0
 71 72  1  0
 71 73  1  0
 73 74  1  1
 73 75  1  0
 73 77  1  0
 75 76  2  0
 77 78  1  6
 77 79  1  0
 77 82  1  0
 79 80  1  0
 79 81  1  0
 79 86  1  0
 82 83  1  0
 82 84  1  0
 82 85  1  0
 86 87  1  0
 86 88  1  0
 86 89  1  0
 90 91  1  0
 90 92  1  0
 92 93  1  6
 92 94  1  0
 92 96  1  0
 94 95  2  0
 96 97  1  0
 96 98  1  0
 96 99  1  0
 99100  1  0
 99101  2  0
100103  2  0
101102  1  0
101105  1  0
103104  1  0
103105  1  0
105251  1  0
106107  1  0
106108  1  0
108109  1  1
108110  1  0
108112  1  0
110111  2  0
112113  1  0
112114  1  0
112118  1  0
114115  1  0
114116  1  0
114117  1  0
118119  1  0
118120  1  0
118121  1  0
122123  1  0
122124  1  0
124125  1  1
124126  1  0
124128  1  0
126127  2  0
126132  1  0
128129  1  0
128130  1  0
128131  1  0
132133  1  0
132134  1  0
134135  1  1
134136  1  0
134138  1  0
136137  2  0
136143  1  0
138139  1  0
138140  1  0
138141  1  0
141142  1  0
143144  1  0
143145  1  0
145146  1  1
145147  1  0
145149  1  0
147148  2  0
149150  1  0
149151  1  0
149152  1  0
152153  1  0
152154  1  0
152158  1  0
154155  1  0
154156  1  0
154157  1  0
158159  1  0
158160  1  0
158161  1  0
162163  1  0
162164  1  0
164165  1  6
164166  1  0
164168  1  0
166167  2  0
166184  1  0
168169  1  0
168170  1  0
168171  1  0
171172  1  0
171173  1  0
171174  1  0
174175  1  0
174176  1  0
174177  1  0
177178  1  0
177179  1  0
177180  1  0
180181  1  0
180182  1  0
180183  1  0
184185  1  0
184186  1  0
186187  1  6
186188  1  0
186190  1  0
188189  2  0
190191  1  0
190192  1  0
190193  1  0
193194  2  0
193196  1  0
194195  1  0
194198  1  0
196197  1  0
196200  2  0
198199  1  0
198202  2  0
200201  1  0
200202  1  0
202203  1  0
203204  1  0
205206  1  0
205207  1  0
207208  1  6
207209  1  0
207211  1  0
209210  2  0
211212  1  0
211213  1  0
211214  1  0
214215  1  0
214216  1  0
214217  1  0
217218  1  0
217219  1  0
217220  1  0
220221  1  0
220222  1  0
222223  2  0
222226  1  0
223224  1  0
223225  1  0
226227  1  0
226228  1  0
229230  1  0
229231  1  0
231232  1  1
231233  1  0
231235  1  0
233234  2  0
235236  1  0
235237  1  0
235238  1  0
238239  2  0
238241  1  0
239240  1  0
239243  1  0
241242  1  0
241245  2  0
243244  1  0
243247  2  0
245246  1  0
245247  1  0
247248  1  0
248249  1  0
M  RAD  8   1   2   5   2  13   2  39   2  55   2  59   2  71   2  75   2
M  RAD  8  90   2  94   2 106   2 110   2 122   2 147   2 162   2 188   2
M  CHG  2 180   1 223   1
M  RAD  4 205   2 209   2 229   2 233   2
M  END
$$$$

     RDKit          3D

251245  0  0  0  0  0  0  0  0999 V2000
    8.2390   15.7430  -10.2460 N   0  0  0  0  0  2  0  0  0  0  0  0
    8.4060   14.8450   -9.7480 H   0  0  0  0  0  0  0  0  0  0  0  0
    7.1270   16.5820   -9.8330 C   0  0  2  0  0  0  0  0  0  0  0  0
    6.5240   16.7530  -10.7240 H   0  0  0  0  0  0  0  0  0  0  0  0
    7.5010   17.9630   -9.3590 C   0  0  0  0  0  3  0  0  0  0  0  0
    8.3130   18.1090   -8.4540 O   0  0  0  0  0  0  0  0  0  0  0  0
    6.3630   15.8620   -8.7680 C   0  0  0  0  0  0  0  0  0  0  0  0
    7.0440   15.5910   -7.9610 H   0  0  0  0  0  0  0  0  0  0  0  0
    5.5850   16.5200   -8.3800 H   0  0  0  0  0  0  0  0  0  0  0  0
    5.7360   14.6350   -9.3040 C   0  0  0  0  0  0  0  0  0  0  0  0
    4.8520   14.7920  -10.1880 O   0  0  0  0  0  0  0  0  0  0  0  0
    6.1520   13.5130   -8.8840 O   0  0  0  0  0  0  0  0  0  0  0  0
    1.6580   16.8130  -11.9920 N   0  0  0  0  0  2  0  0  0  0  0  0
    2.3630   16.6600  -11.2430 H   0  0  0  0  0  0  0  0  0  0  0  0
    0.5750   15.8710  -12.1280 C   0  0  2  0  0  0  0  0  0  0  0  0
    0.1290   15.9910  -13.1150 H   0  0  0  0  0  0  0  0  0  0  0  0
   -0.5220   16.1130  -11.1130 C   0  0  0  0  0  0  0  0  0  0  0  0
   -0.2990   16.7340  -10.0760 O   0  0  0  0  0  0  0  0  0  0  0  0
    1.1300   14.4960  -11.9520 C   0  0  0  0  0  0  0  0  0  0  0  0
    0.3140   13.7740  -11.9180 H   0  0  0  0  0  0  0  0  0  0  0  0
    1.6970   14.4460  -11.0220 H   0  0  0  0  0  0  0  0  0  0  0  0
    1.9940   14.1960  -13.0610 O   0  0  0  0  0  0  0  0  0  0  0  0
    2.3660   13.2850  -12.9510 H   0  0  0  0  0  0  0  0  0  0  0  0
   -1.7070   15.5990  -11.3820 N   0  0  0  0  0  0  0  0  0  0  0  0
   -1.8300   15.0390  -12.2500 H   0  0  0  0  0  0  0  0  0  0  0  0
   -2.8500   15.7940  -10.4960 C   0  0  2  0  0  0  0  0  0  0  0  0
   -2.4940   15.6940   -9.4710 H   0  0  0  0  0  0  0  0  0  0  0  0
   -3.9360   14.7420  -10.7100 C   0  0  0  0  0  0  0  0  0  0  0  0
   -4.1170   14.2150  -11.8220 O   0  0  0  0  0  0  0  0  0  0  0  0
   -3.4310   17.1680  -10.7260 C   0  0  0  0  0  0  0  0  0  0  0  0
   -3.6970   17.2780  -11.7770 H   0  0  0  0  0  0  0  0  0  0  0  0
   -2.6920   17.9230  -10.4590 H   0  0  0  0  0  0  0  0  0  0  0  0
   -4.5930   17.3400   -9.9250 O   0  0  0  0  0  0  0  0  0  0  0  0
   -4.9690   18.2430  -10.0800 H   0  0  0  0  0  0  0  0  0  0  0  0
   -4.6520   14.4140   -9.6350 N   0  0  0  0  0  0  0  0  0  0  0  0
   -4.3590   14.7920   -8.7110 H   0  0  0  0  0  0  0  0  0  0  0  0
   -5.8320   13.5460   -9.6910 C   0  0  2  0  0  0  0  0  0  0  0  0
   -5.6450   12.7780  -10.4420 H   0  0  0  0  0  0  0  0  0  0  0  0
   -7.0770   14.3290  -10.1220 C   0  0  0  0  0  3  0  0  0  0  0  0
   -8.0250   13.7390  -10.5890 O   0  0  0  0  0  0  0  0  0  0  0  0
   -6.0610   12.8570   -8.3570 C   0  0  0  0  0  0  0  0  0  0  0  0
   -5.9730   13.6020   -7.5670 H   0  0  0  0  0  0  0  0  0  0  0  0
   -7.0700   12.4440   -8.3540 H   0  0  0  0  0  0  0  0  0  0  0  0
   -5.0730   11.7210   -8.0610 C   0  0  0  0  0  0  0  0  0  0  0  0
   -4.0720   11.8810   -7.1020 C   0  0  0  0  0  0  0  0  0  0  0  0
   -3.9860   12.8270   -6.5670 H   0  0  0  0  0  0  0  0  0  0  0  0
   -5.1740   10.4980   -8.7080 C   0  0  0  0  0  0  0  0  0  0  0  0
   -5.9560   10.3530   -9.4530 H   0  0  0  0  0  0  0  0  0  0  0  0
   -3.1820   10.8480   -6.8190 C   0  0  0  0  0  0  0  0  0  0  0  0
   -2.4060   10.9870   -6.0660 H   0  0  0  0  0  0  0  0  0  0  0  0
   -4.2920    9.4420   -8.4250 C   0  0  0  0  0  0  0  0  0  0  0  0
   -4.4060    8.4830   -8.9310 H   0  0  0  0  0  0  0  0  0  0  0  0
   -3.2860    9.6220   -7.5080 C   0  0  0  0  0  0  0  0  0  0  0  0
   -2.5720    8.8220   -7.3140 H   0  0  0  0  0  0  0  0  0  0  0  0
   -3.3140    5.0230  -13.0570 N   0  0  0  0  0  2  0  0  0  0  0  0
   -4.1400    5.6150  -12.8370 H   0  0  0  0  0  0  0  0  0  0  0  0
   -2.5170    4.4610  -11.9940 C   0  0  2  0  0  0  0  0  0  0  0  0
   -1.7250    3.8470  -12.4230 H   0  0  0  0  0  0  0  0  0  0  0  0
   -3.4380    3.6400  -11.1070 C   0  0  0  0  0  3  0  0  0  0  0  0
   -4.4710    4.1900  -10.6370 O   0  0  0  0  0  0  0  0  0  0  0  0
   -1.8540    5.5840  -11.1350 C   0  0  0  0  0  0  0  0  0  0  0  0
   -2.6490    6.2450  -10.7900 H   0  0  0  0  0  0  0  0  0  0  0  0
   -1.1450    4.9970   -9.9330 C   0  0  0  0  0  0  0  0  0  0  0  0
   -1.8650    4.4610   -9.3150 H   0  0  0  0  0  0  0  0  0  0  0  0
   -0.3700    4.3090  -10.2700 H   0  0  0  0  0  0  0  0  0  0  0  0
   -0.6920    5.8000   -9.3520 H   0  0  0  0  0  0  0  0  0  0  0  0
   -0.8790    6.3820  -11.9530 C   0  0  0  0  0  0  0  0  0  0  0  0
   -0.0980    5.7220  -12.3300 H   0  0  0  0  0  0  0  0  0  0  0  0
   -1.4020    6.8440  -12.7900 H   0  0  0  0  0  0  0  0  0  0  0  0
   -0.4320    7.1570  -11.3300 H   0  0  0  0  0  0  0  0  0  0  0  0
   -4.5210    2.0210   -7.7850 N   0  0  0  0  0  2  0  0  0  0  0  0
   -5.4600    2.1270   -8.2190 H   0  0  0  0  0  0  0  0  0  0  0  0
   -4.3760    2.2860   -6.3400 C   0  0  2  0  0  0  0  0  0  0  0  0
   -3.3700    1.9630   -6.0710 H   0  0  0  0  0  0  0  0  0  0  0  0
   -5.3740    1.4700   -5.5200 C   0  0  0  0  0  3  0  0  0  0  0  0
   -6.6090    1.7400   -5.5300 O   0  0  0  0  0  0  0  0  0  0  0  0
   -4.4620    3.8040   -5.9870 C   0  0  2  0  0  0  0  0  0  0  0  0
   -5.4400    4.1780   -6.2900 H   0  0  0  0  0  0  0  0  0  0  0  0
   -3.3750    4.5860   -6.7450 C   0  0  0  0  0  0  0  0  0  0  0  0
   -2.4260    4.4330   -6.2310 H   0  0  0  0  0  0  0  0  0  0  0  0
   -3.3090    4.1820   -7.7550 H   0  0  0  0  0  0  0  0  0  0  0  0
   -4.3050    4.0130   -4.4580 C   0  0  0  0  0  0  0  0  0  0  0  0
   -5.1000    3.4810   -3.9360 H   0  0  0  0  0  0  0  0  0  0  0  0
   -3.3370    3.6280   -4.1370 H   0  0  0  0  0  0  0  0  0  0  0  0
   -4.3670    5.0770   -4.2300 H   0  0  0  0  0  0  0  0  0  0  0  0
   -3.6210    6.0930   -6.8510 C   0  0  0  0  0  0  0  0  0  0  0  0
   -4.5590    6.2710   -7.3760 H   0  0  0  0  0  0  0  0  0  0  0  0
   -3.6760    6.5220   -5.8510 H   0  0  0  0  0  0  0  0  0  0  0  0
   -2.8020    6.5560   -7.4010 H   0  0  0  0  0  0  0  0  0  0  0  0
   -7.1030    4.9550  -11.2140 N   0  0  0  0  0  2  0  0  0  0  0  0
   -6.1220    4.6450  -11.0650 H   0  0  0  0  0  0  0  0  0  0  0  0
   -7.3690    6.3930  -11.2260 C   0  0  2  0  0  0  0  0  0  0  0  0
   -8.4260    6.5500  -11.4390 H   0  0  0  0  0  0  0  0  0  0  0  0
   -6.5510    7.1110  -12.3230 C   0  0  0  0  0  3  0  0  0  0  0  0
   -5.3670    6.8340  -12.4820 O   0  0  0  0  0  0  0  0  0  0  0  0
   -6.9990    6.9690   -9.8590 C   0  0  0  0  0  0  0  0  0  0  0  0
   -5.9460    6.7590   -9.6690 H   0  0  0  0  0  0  0  0  0  0  0  0
   -7.1550    8.0480   -9.8840 H   0  0  0  0  0  0  0  0  0  0  0  0
   -7.8100    6.3970   -8.7320 C   0  0  0  0  0  0  0  0  0  0  0  0
   -9.1120    6.7880   -8.4820 N   0  0  0  0  0  0  0  0  0  0  0  0
   -7.5200    5.4300   -7.8250 C   0  0  0  0  0  0  0  0  0  0  0  0
   -6.5730    4.9000   -7.7210 H   0  0  0  0  0  0  0  0  0  0  0  0
   -9.5840    6.0790   -7.4730 C   0  0  0  0  0  0  0  0  0  0  0  0
  -10.5840    6.1660   -7.0470 H   0  0  0  0  0  0  0  0  0  0  0  0
   -8.6430    5.2470   -7.0660 N   0  0  0  0  0  0  0  0  0  0  0  0
   -4.3430    9.9870  -13.8600 N   0  0  0  0  0  2  0  0  0  0  0  0
   -3.9430    9.2670  -14.4950 H   0  0  0  0  0  0  0  0  0  0  0  0
   -3.4660   11.0950  -13.4060 C   0  0  2  0  0  0  0  0  0  0  0  0
   -3.9980   11.6020  -12.6010 H   0  0  0  0  0  0  0  0  0  0  0  0
   -3.1980   12.0700  -14.5610 C   0  0  0  0  0  3  0  0  0  0  0  0
   -2.6940   11.6660  -15.6100 O   0  0  0  0  0  0  0  0  0  0  0  0
   -2.1230   10.5980  -12.8370 C   0  0  0  0  0  0  0  0  0  0  0  0
   -1.6160   10.0380  -13.6230 H   0  0  0  0  0  0  0  0  0  0  0  0
   -1.2160   11.7770  -12.4230 C   0  0  0  0  0  0  0  0  0  0  0  0
   -1.0140   12.4010  -13.2930 H   0  0  0  0  0  0  0  0  0  0  0  0
   -1.7190   12.3690  -11.6580 H   0  0  0  0  0  0  0  0  0  0  0  0
   -0.2780   11.3900  -12.0260 H   0  0  0  0  0  0  0  0  0  0  0  0
   -2.3600    9.6900  -11.6480 C   0  0  0  0  0  0  0  0  0  0  0  0
   -2.8940   10.2400  -10.8730 H   0  0  0  0  0  0  0  0  0  0  0  0
   -2.9540    8.8310  -11.9610 H   0  0  0  0  0  0  0  0  0  0  0  0
   -1.4020    9.3470  -11.2570 H   0  0  0  0  0  0  0  0  0  0  0  0
   10.6540   11.3050   -5.5760 N   0  0  0  0  0  2  0  0  0  0  0  0
   10.3920   12.2850   -5.8030 H   0  0  0  0  0  0  0  0  0  0  0  0
   10.0940   10.6720   -4.3490 C   0  0  2  0  0  0  0  0  0  0  0  0
   10.8680    9.9920   -3.9930 H   0  0  0  0  0  0  0  0  0  0  0  0
    8.8430    9.8410   -4.6350 C   0  0  0  0  0  0  0  0  0  0  0  0
    8.3760    9.1070   -3.7350 O   0  0  0  0  0  0  0  0  0  0  0  0
    9.8210   11.6790   -3.2540 C   0  0  0  0  0  0  0  0  0  0  0  0
   10.7510   12.1790   -2.9810 H   0  0  0  0  0  0  0  0  0  0  0  0
    9.1020   12.4160   -3.6110 H   0  0  0  0  0  0  0  0  0  0  0  0
    9.4140   11.1650   -2.3830 H   0  0  0  0  0  0  0  0  0  0  0  0
    8.3280    9.9240   -5.8760 N   0  0  0  0  0  0  0  0  0  0  0  0
    8.8050   10.5390   -6.5650 H   0  0  0  0  0  0  0  0  0  0  0  0
    7.1420    9.2010   -6.3060 C   0  0  2  0  0  0  0  0  0  0  0  0
    6.4000    9.3360   -5.5190 H   0  0  0  0  0  0  0  0  0  0  0  0
    7.4250    7.7530   -6.4980 C   0  0  0  0  0  0  0  0  0  0  0  0
    8.5700    7.2700   -6.4620 O   0  0  0  0  0  0  0  0  0  0  0  0
    6.6180    9.7450   -7.6390 C   0  0  0  0  0  0  0  0  0  0  0  0
    5.6190    9.3460   -7.8150 H   0  0  0  0  0  0  0  0  0  0  0  0
    7.2840    9.4210   -8.4390 H   0  0  0  0  0  0  0  0  0  0  0  0
    6.5530   11.1910   -7.6390 O   0  0  0  0  0  0  0  0  0  0  0  0
    6.2110   11.5050   -8.5140 H   0  0  0  0  0  0  0  0  0  0  0  0
    6.3550    7.0580   -6.8100 N   0  0  0  0  0  0  0  0  0  0  0  0
    5.4610    7.5640   -6.9720 H   0  0  0  0  0  0  0  0  0  0  0  0
    6.3700    5.6400   -6.9350 C   0  0  2  0  0  0  0  0  0  0  0  0
    7.1620    5.1570   -6.3640 H   0  0  0  0  0  0  0  0  0  0  0  0
    6.5790    5.3360   -8.4090 C   0  0  0  0  0  3  0  0  0  0  0  0
    6.0940    6.0730   -9.2600 O   0  0  0  0  0  0  0  0  0  0  0  0
    5.0220    5.1190   -6.4090 C   0  0  0  0  0  0  0  0  0  0  0  0
    4.2350    5.7010   -6.8870 H   0  0  0  0  0  0  0  0  0  0  0  0
    4.9330    4.0750   -6.7090 H   0  0  0  0  0  0  0  0  0  0  0  0
    4.7900    5.1880   -4.8740 C   0  0  0  0  0  0  0  0  0  0  0  0
    5.0100    6.2120   -4.5710 H   0  0  0  0  0  0  0  0  0  0  0  0
    3.3110    4.7880   -4.5700 C   0  0  0  0  0  0  0  0  0  0  0  0
    2.6380    5.4790   -5.0770 H   0  0  0  0  0  0  0  0  0  0  0  0
    3.1300    3.7740   -4.9260 H   0  0  0  0  0  0  0  0  0  0  0  0
    3.1370    4.8330   -3.4950 H   0  0  0  0  0  0  0  0  0  0  0  0
    5.7270    4.2640   -4.0560 C   0  0  0  0  0  0  0  0  0  0  0  0
    5.5710    3.2290   -4.3610 H   0  0  0  0  0  0  0  0  0  0  0  0
    6.7640    4.5460   -4.2400 H   0  0  0  0  0  0  0  0  0  0  0  0
    5.5030    4.3690   -2.9940 H   0  0  0  0  0  0  0  0  0  0  0  0
    5.3050    3.2970  -10.3550 N   0  0  0  0  0  2  0  0  0  0  0  0
    5.3190    3.2100   -9.3190 H   0  0  0  0  0  0  0  0  0  0  0  0
    4.1120    2.9140  -11.0930 C   0  0  2  0  0  0  0  0  0  0  0  0
    4.3770    2.2010  -11.8730 H   0  0  0  0  0  0  0  0  0  0  0  0
    3.5250    4.1710  -11.7290 C   0  0  0  0  0  0  0  0  0  0  0  0
    2.8290    4.0740  -12.7370 O   0  0  0  0  0  0  0  0  0  0  0  0
    3.0890    2.1810  -10.2000 C   0  0  0  0  0  0  0  0  0  0  0  0
    2.2390    1.8870  -10.8160 H   0  0  0  0  0  0  0  0  0  0  0  0
    3.5630    1.2900   -9.7890 H   0  0  0  0  0  0  0  0  0  0  0  0
    2.5850    3.0260   -9.0590 C   0  0  0  0  0  0  0  0  0  0  0  0
    3.2850    2.9380   -8.2280 H   0  0  0  0  0  0  0  0  0  0  0  0
    2.5440    4.0640   -9.3890 H   0  0  0  0  0  0  0  0  0  0  0  0
    1.2080    2.6210   -8.5730 C   0  0  0  0  0  0  0  0  0  0  0  0
    0.7530    3.4710   -8.0650 H   0  0  0  0  0  0  0  0  0  0  0  0
    0.6000    2.3470   -9.4350 H   0  0  0  0  0  0  0  0  0  0  0  0
    1.2480    1.4500   -7.6160 C   0  0  0  0  0  0  0  0  0  0  0  0
    2.1300    1.5540   -6.9850 H   0  0  0  0  0  0  0  0  0  0  0  0
    1.3270    0.5330   -8.2000 H   0  0  0  0  0  0  0  0  0  0  0  0
    0.0220    1.3380   -6.7120 N   0  0  0  0  0  4  0  0  0  0  0  0
   -0.0630    2.2000   -6.1370 H   0  0  0  0  0  0  0  0  0  0  0  0
   -0.8300    1.2250   -7.2980 H   0  0  0  0  0  0  0  0  0  0  0  0
    0.1270    0.5130   -6.0880 H   0  0  0  0  0  0  0  0  0  0  0  0
    3.8150    5.3320  -11.1570 N   0  0  0  0  0  0  0  0  0  0  0  0
    4.3440    5.3460  -10.2620 H   0  0  0  0  0  0  0  0  0  0  0  0
    3.4060    6.5700  -11.7600 C   0  0  2  0  0  0  0  0  0  0  0  0
    2.6010    6.3500  -12.4610 H   0  0  0  0  0  0  0  0  0  0  0  0
    4.5830    7.2000  -12.5340 C   0  0  0  0  0  3  0  0  0  0  0  0
    4.3900    7.6850  -13.6440 O   0  0  0  0  0  0  0  0  0  0  0  0
    2.8330    7.5740  -10.6990 C   0  0  0  0  0  0  0  0  0  0  0  0
    1.7520    7.4410  -10.6510 H   0  0  0  0  0  0  0  0  0  0  0  0
    3.2710    7.3350   -9.7300 H   0  0  0  0  0  0  0  0  0  0  0  0
    3.1220    9.0400  -11.0060 C   0  0  0  0  0  0  0  0  0  0  0  0
    2.4190    9.6990  -11.9770 C   0  0  0  0  0  0  0  0  0  0  0  0
    1.6340    9.1740  -12.5200 H   0  0  0  0  0  0  0  0  0  0  0  0
    4.1580    9.7400  -10.3510 C   0  0  0  0  0  0  0  0  0  0  0  0
    4.7460    9.2230   -9.5930 H   0  0  0  0  0  0  0  0  0  0  0  0
    2.7000   11.0760  -12.2930 C   0  0  0  0  0  0  0  0  0  0  0  0
    2.1060   11.5870  -13.0510 H   0  0  0  0  0  0  0  0  0  0  0  0
    4.4620   11.1120  -10.6520 C   0  0  0  0  0  0  0  0  0  0  0  0
    5.2550   11.6380  -10.1200 H   0  0  0  0  0  0  0  0  0  0  0  0
    3.7150   11.7570  -11.6450 C   0  0  0  0  0  0  0  0  0  0  0  0
    3.9630   13.0750  -12.0290 O   0  0  0  0  0  0  0  0  0  0  0  0
    3.3260   13.3360  -12.7410 H   0  0  0  0  0  0  0  0  0  0  0  0
   10.9780    6.3050   -4.9480 N   0  0  0  0  0  2  0  0  0  0  0  0
   10.1880    5.9880   -5.5450 H   0  0  0  0  0  0  0  0  0  0  0  0
   10.7200    6.5580   -3.5270 C   0  0  2  0  0  0  0  0  0  0  0  0
   10.9690    7.6020   -3.3390 H   0  0  0  0  0  0  0  0  0  0  0  0
   11.6250    5.7190   -2.6400 C   0  0  0  0  0  3  0  0  0  0  0  0
   12.2670    6.2920   -1.7970 O   0  0  0  0  0  0  0  0  0  0  0  0
    9.2040    6.4100   -3.1540 C   0  0  0  0  0  0  0  0  0  0  0  0
    8.6640    7.2090   -3.6620 H   0  0  0  0  0  0  0  0  0  0  0  0
    8.8680    5.4460   -3.5360 H   0  0  0  0  0  0  0  0  0  0  0  0
    8.8060    6.4750   -1.6050 C   0  0  0  0  0  0  0  0  0  0  0  0
    9.0730    5.5270   -1.1380 H   0  0  0  0  0  0  0  0  0  0  0  0
    9.3690    7.2810   -1.1350 H   0  0  0  0  0  0  0  0  0  0  0  0
    7.2710    6.7340   -1.3710 C   0  0  0  0  0  0  0  0  0  0  0  0
    6.9860    6.4380   -0.3620 H   0  0  0  0  0  0  0  0  0  0  0  0
    6.6770    6.1740   -2.0940 H   0  0  0  0  0  0  0  0  0  0  0  0
    7.0740    8.1750   -1.5550 N   0  0  0  0  0  0  0  0  0  0  0  0
    7.9010    8.7810   -1.3810 H   0  0  0  0  0  0  0  0  0  0  0  0
    5.9530    8.7950   -1.9200 C   0  0  0  0  0  0  0  0  0  0  0  0
    4.8300    8.1290   -2.1550 N   0  0  0  0  0  4  0  0  0  0  0  0
    4.8090    7.0940   -2.0560 H   0  0  0  0  0  0  0  0  0  0  0  0
    3.9710    8.6420   -2.4390 H   0  0  0  0  0  0  0  0  0  0  0  0
    5.9750   10.1110   -2.0680 N   0  0  0  0  0  0  0  0  0  0  0  0
    6.8550   10.6390   -1.9000 H   0  0  0  0  0  0  0  0  0  0  0  0
    5.1120   10.6170   -2.3520 H   0  0  0  0  0  0  0  0  0  0  0  0
   11.6800   13.6970    2.1500 N   0  0  0  0  0  2  0  0  0  0  0  0
   11.0060   14.3750    1.7400 H   0  0  0  0  0  0  0  0  0  0  0  0
   12.3750   12.7460    1.2760 C   0  0  2  0  0  0  0  0  0  0  0  0
   12.5890   11.8420    1.8460 H   0  0  0  0  0  0  0  0  0  0  0  0
   13.6730   13.4000    0.7880 C   0  0  0  0  0  3  0  0  0  0  0  0
   13.6690   14.3550    0.0170 O   0  0  0  0  0  0  0  0  0  0  0  0
   11.5200   12.3200    0.0890 C   0  0  0  0  0  0  0  0  0  0  0  0
   11.3570   13.1990   -0.5350 H   0  0  0  0  0  0  0  0  0  0  0  0
   12.0810   11.5750   -0.4740 H   0  0  0  0  0  0  0  0  0  0  0  0
   10.1640   11.7270    0.4160 C   0  0  0  0  0  0  0  0  0  0  0  0
   10.0310   10.3500    0.7370 C   0  0  0  0  0  0  0  0  0  0  0  0
   10.9170    9.7150    0.7680 H   0  0  0  0  0  0  0  0  0  0  0  0
    9.0060   12.5450    0.3790 C   0  0  0  0  0  0  0  0  0  0  0  0
    9.1020   13.6000    0.1210 H   0  0  0  0  0  0  0  0  0  0  0  0
    8.7740    9.8000    1.0140 C   0  0  0  0  0  0  0  0  0  0  0  0
    8.6750    8.7420    1.2580 H   0  0  0  0  0  0  0  0  0  0  0  0
    7.7410   12.0170    0.6690 C   0  0  0  0  0  0  0  0  0  0  0  0
    6.8570   12.6550    0.6610 H   0  0  0  0  0  0  0  0  0  0  0  0
    7.6340   10.6360    0.9730 C   0  0  0  0  0  0  0  0  0  0  0  0
    6.3730   10.1120    1.2340 O   0  0  0  0  0  0  0  0  0  0  0  0
    6.4530    9.1450    1.4290 H   0  0  0  0  0  0  0  0  0  0  0  0
    6.8140   13.4770   -8.2220 H   0  0  0  0  0  0  0  0  0  0  0  0
   -8.7350    4.5970   -6.3320 H   0  0  0  0  0  0  0  0  0  0  0  0
  1  2  1  0
  1  3  1  0
  3  4  1  6
  3  5  1  0
  3  7  1  0
  5  6  2  0
  7  8  1  0
  7  9  1  0
  7 10  1  0
 10 11  2  0
 10 12  1  0
 12250  1  0
 13 14  1  0
 13 15  1  0
 15 16  1  6
 15 17  1  0
 15 19  1  0
 17 18  2  0
 17 24  1  0
 19 20  1  0
 19 21  1  0
 19 22  1  0
 22 23  1  0
 24 25  1  0
 24 26  1  0
 26 27  1  1
 26 28  1  0
 26 30  1  0
 28 29  2  0
 28 35  1  0
 30 31  1  0
 30 32  1  0
 30 33  1  0
 33 34  1  0
 35 36  1  0
 35 37  1  0
 37 38  1  6
 37 39  1  0
 37 41  1  0
 39 40  2  0
 41 42  1  0
 41 43  1  0
 41 44  1  0
 44 45  2  0
 44 47  1  0
 45 46  1  0
 45 49  1  0
 47 48  1  0
 47 51  2  0
 49 50  1  0
 49 53  2  0
 51 52  1  0
 51 53  1  0
 53 54  1  0
 55 56  1  0
 55 57  1  0
 57 58  1  6
 57 59  1  0
 57 61  1  0
 59 60  2  0
 61 62  1  0
 61 63  1  0
 61 67  1  0
 63 64  1  0
 63 65  1  0
 63 66  1  0
 67 68  1  0
 67 69  1  0
 67 70  1  0
 71 72  1  0
 71 73  1  0
 73 74  1  1
 73 75  1  0
 73 77  1  0
 75 76  2  0
 77 78  1  6
 77 79  1  0
 77 82  1  0
 79 80  1  0
 79 81  1  0
 79 86  1  0
 82 83  1  0
 82 84  1  0
 82 85  1  0
 86 87  1  0
 86 88  1  0
 86 89  1  0
 90 91  1  0
 90 92  1  0
 92 93  1  6
 92 94  1  0
 92 96  1  0
 94 95  2  0
 96 97  1  0
 96 98  1  0
 96 99  1  0
 99100  1  0
 99101  2  0
100103  2  0
101102  1  0
101105  1  0
103104  1  0
103105  1  0
105251  1  0
106107  1  0
106108  1  0
108109  1  1
108110  1  0
108112  1  0
110111  2  0
112113  1  0
112114  1  0
112118  1  0
114115  1  0
114116  1  0
114117  1  0
118119  1  0
118120  1  0
118121  1  0
122123  1  0
122124  1  0
124125  1  1
124126  1  0
124128  1  0
126127  2  0
126132  1  0
128129  1  0
128130  1  0
128131  1  0
132133  1  0
132134  1  0
134135  1  1
134136  1  0
134138  1  0
136137  2  0
136143  1  0
138139  1  0
138140  1  0
138141  1  0
141142  1  0
143144  1  0
143145  1  0
145146  1  1
145147  1  0
145149  1  0
147148  2  0
149150  1  0
149151  1  0
149152  1  0
152153  1  0
152154  1  0
152158  1  0
154155  1  0
154156  1  0
154157  1  0
158159  1  0
158160  1  0
158161  1  0
162163  1  0
162164  1  0
164165  1  6
164166  1  0
164168  1  0
166167  2  0
166184  1  0
168169  1  0
168170  1  0
168171  1  0
171172  1  0
171173  1  0
171174  1  0
174175  1  0
174176  1  0
174177  1  0
177178  1  0
177179  1  0
177180  1  0
180181  1  0
180182  1  0
180183  1  0
184185  1  0
184186  1  0
186187  1  6
186188  1  0
186190  1  0
188189  2  0
190191  1  0
190192  1  0
190193  1  0
193194  2  0
193196  1  0
194195  1  0
194198  1  0
196197  1  0
196200  2  0
198199  1  0
198202  2  0
200201  1  0
200202  1  0
202203  1  0
203204  1  0
205206  1  0
205207  1  0
207208  1  6
207209  1  0
207211  1  0
209210  2  0
211212  1  0
211213  1  0
211214  1  0
214215  1  0
214216  1  0
214217  1  0
217218  1  0
217219  1  0
217220  1  0
220221  1  0
220222  1  0
222223  2  0
222226  1  0
223224  1  0
223225  1  0
226227  1  0
226228  1  0
229230  1  0
229231  1  0
231232  1  1
231233  1  0
231235  1  0
233234  2  0
235236  1  0
235237  1  0
235238  1  0
238239  2  0
238241  1  0
239240  1  0
239243  1  0
241242  1  0
241245  2  0
243244  1  0
243247  2  0
245246  1  0
245247  1  0
247248  1  0
248249  1  0
M  RAD  8   1   2   5   2  13   2  39   2  55   2  59   2  71   2  75   2
M  RAD  8  90   2  94   2 106   2 110   2 122   2 147   2 162   2 188   2
M  CHG  2 180   1 223   1
M  RAD  4 205   2 209   2 229   2 233   2
M  END
$$$$
